
     RDKit          3D

 26 28  0  0  0  0  0  0  0  0999 V2000
    5.2947   -8.8807    9.9872 O   0  0  0  0  0  0  0  0  0  0  0  0
    4.4371   -9.6901    9.0797 S   0  0  1  0  0  6  0  0  0  0  0  0
    4.8714  -11.3817    9.2557 C   0  0  0  0  0  0  0  0  0  0  0  0
    4.4182  -12.3216    8.3539 C   0  0  0  0  0  0  0  0  0  0  0  0
    4.7509  -13.6543    8.4792 C   0  0  0  0  0  0  0  0  0  0  0  0
    5.5502  -14.1123    9.5083 C   0  0  0  0  0  0  0  0  0  0  0  0
    5.9013  -15.5210    9.6400 C   0  0  0  0  0  0  0  0  0  0  0  0
    7.2085  -15.9633    9.8214 C   0  0  0  0  0  0  0  0  0  0  0  0
    7.5278  -17.2845    9.9438 C   0  0  0  0  0  0  0  0  0  0  0  0
    8.8903  -17.7885   10.1362 C   0  0  1  0  0  0  0  0  0  0  0  0
    9.2052  -18.0010   11.5544 C   0  0  0  0  0  0  0  0  0  0  0  0
   10.5754  -18.0029   11.9225 N   0  0  0  0  0  0  0  0  0  0  0  0
    8.3194  -18.1821   12.4816 N   0  0  0  0  0  4  0  0  0  0  0  0
    9.1327  -19.0326    9.3034 C   0  0  0  0  0  0  0  0  0  0  0  0
    9.6242  -18.0805    8.2022 C   0  0  0  0  0  0  0  0  0  0  0  0
    9.9727  -17.1194    9.3256 C   0  0  0  0  0  0  0  0  0  0  0  0
    6.5025  -18.2002    9.8826 C   0  0  0  0  0  0  0  0  0  0  0  0
    5.1753  -17.8248    9.7031 C   0  0  0  0  0  0  0  0  0  0  0  0
    3.8753  -18.9727    9.6247 Cl  0  0  0  0  0  0  0  0  0  0  0  0
    4.9072  -16.4739    9.5849 C   0  0  0  0  0  0  0  0  0  0  0  0
    6.0032  -13.1694   10.4104 C   0  0  0  0  0  0  0  0  0  0  0  0
    5.6705  -11.8255   10.2881 C   0  0  0  0  0  0  0  0  0  0  0  0
    2.7849   -9.4283    9.5150 N   0  0  0  0  0  0  0  0  0  0  0  0
    2.6102   -9.5118   10.9581 C   0  0  0  0  0  0  0  0  0  0  0  0
    1.1284   -9.5126   11.2503 C   0  0  0  0  0  0  0  0  0  0  0  0
    4.6400   -9.2137    7.6814 O   0  0  0  0  0  0  0  0  0  0  0  0
  1  2  2  0
  2  3  1  0
  2 23  1  1
  2 26  2  0
  3 22  2  0
  3  4  1  0
  4  5  2  0
  5  6  1  0
  6  7  1  0
  6 21  2  0
  7 20  1  0
  7  8  2  0
  8  9  1  0
 10  9  1  1
  9 17  2  0
 10 16  1  0
 10 11  1  0
 14 10  1  6
 11 12  1  0
 11 13  2  3
 15 14  1  6
 16 15  1  1
 17 18  1  0
 18 19  1  0
 18 20  2  0
 21 22  1  0
 24 23  1  6
 25 24  1  1
M  CHG  1  13   1
M  END
$$$$
