
     RDKit          3D

 26 28  0  0  0  0  0  0  0  0999 V2000
    1.1560  -14.9416    7.6793 O   0  0  0  0  0  0  0  0  0  0  0  0
    1.7250  -13.6247    8.0747 S   0  0  1  0  0  6  0  0  0  0  0  0
    3.2294  -13.8980    8.9367 C   0  0  0  0  0  0  0  0  0  0  0  0
    3.4079  -15.0347    9.6969 C   0  0  0  0  0  0  0  0  0  0  0  0
    4.5842  -15.2632   10.3799 C   0  0  0  0  0  0  0  0  0  0  0  0
    5.6370  -14.3700   10.3373 C   0  0  0  0  0  0  0  0  0  0  0  0
    6.8799  -14.6122   11.0595 C   0  0  0  0  0  0  0  0  0  0  0  0
    8.0863  -14.8875   10.4223 C   0  0  0  0  0  0  0  0  0  0  0  0
    9.2452  -15.1130   11.1068 C   0  0  0  0  0  0  0  0  0  0  0  0
   10.5334  -15.4051   10.4724 C   0  0  1  0  0  0  0  0  0  0  0  0
   10.4757  -16.6094    9.6346 C   0  0  0  0  0  0  0  0  0  0  0  0
   10.7144  -17.8552   10.2703 N   0  0  0  0  0  0  0  0  0  0  0  0
   10.2202  -16.6062    8.3650 N   0  0  0  0  0  4  0  0  0  0  0  0
   11.0489  -14.2007    9.7085 C   0  0  0  0  0  0  0  0  0  0  0  0
   11.7628  -13.8040   11.0099 C   0  0  0  0  0  0  0  0  0  0  0  0
   11.7549  -15.2844   11.3497 C   0  0  0  0  0  0  0  0  0  0  0  0
    9.1984  -15.0618   12.4811 C   0  0  0  0  0  0  0  0  0  0  0  0
    8.0260  -14.7918   13.1791 C   0  0  0  0  0  0  0  0  0  0  0  0
    7.9572  -14.7251   14.9126 Cl  0  0  0  0  0  0  0  0  0  0  0  0
    6.8808  -14.5709   12.4371 C   0  0  0  0  0  0  0  0  0  0  0  0
    5.4562  -13.2321    9.5754 C   0  0  0  0  0  0  0  0  0  0  0  0
    4.2727  -12.9978    8.8855 C   0  0  0  0  0  0  0  0  0  0  0  0
    1.9940  -12.6958    6.6421 N   0  0  0  0  0  0  0  0  0  0  0  0
    0.7359  -12.4068    5.9685 C   0  0  0  0  0  0  0  0  0  0  0  0
    1.0401  -11.5680    4.7499 C   0  0  0  0  0  0  0  0  0  0  0  0
    0.7283  -12.9101    8.9228 O   0  0  0  0  0  0  0  0  0  0  0  0
  1  2  2  0
  2  3  1  0
  2 23  1  6
  2 26  2  0
  3 22  2  0
  3  4  1  0
  4  5  2  0
  5  6  1  0
  6  7  1  0
  6 21  2  0
  7 20  1  0
  7  8  2  0
  8  9  1  0
 10  9  1  1
  9 17  2  0
 10 16  1  0
 10 11  1  0
 14 10  1  6
 11 12  1  0
 11 13  2  3
 15 14  1  6
 16 15  1  1
 17 18  1  0
 18 19  1  0
 18 20  2  0
 21 22  1  0
 24 23  1  6
 25 24  1  1
M  CHG  1  13   1
M  END
$$$$
