
     RDKit          3D

 26 28  0  0  0  0  0  0  0  0999 V2000
    7.8773  -12.8266   12.8800 O   0  0  0  0  0  0  0  0  0  0  0  0
    6.9363  -12.8309   11.7274 S   0  0  1  0  0  6  0  0  0  0  0  0
    7.5942  -13.8612   10.4678 C   0  0  0  0  0  0  0  0  0  0  0  0
    8.6285  -14.7319   10.7403 C   0  0  0  0  0  0  0  0  0  0  0  0
    9.1560  -15.5475    9.7611 C   0  0  0  0  0  0  0  0  0  0  0  0
    8.6778  -15.5335    8.4653 C   0  0  0  0  0  0  0  0  0  0  0  0
    9.2359  -16.3958    7.4310 C   0  0  0  0  0  0  0  0  0  0  0  0
   10.5920  -16.4262    7.1189 C   0  0  0  0  0  0  0  0  0  0  0  0
   11.1056  -17.2370    6.1486 C   0  0  0  0  0  0  0  0  0  0  0  0
   12.5257  -17.2976    5.7920 C   0  0  1  0  0  0  0  0  0  0  0  0
   13.1214  -18.5995    6.1167 C   0  0  0  0  0  0  0  0  0  0  0  0
   13.5471  -18.8038    7.4547 N   0  0  0  0  0  0  0  0  0  0  0  0
   13.2785  -19.5647    5.2676 N   0  0  0  0  0  4  0  0  0  0  0  0
   12.7383  -16.9172    4.3394 C   0  0  0  0  0  0  0  0  0  0  0  0
   12.9110  -15.4763    4.8441 C   0  0  0  0  0  0  0  0  0  0  0  0
   13.3599  -16.0945    6.1568 C   0  0  0  0  0  0  0  0  0  0  0  0
   10.2318  -18.0493    5.4629 C   0  0  0  0  0  0  0  0  0  0  0  0
    8.8660  -18.0671    5.7256 C   0  0  0  0  0  0  0  0  0  0  0  0
    7.7560  -19.0883    4.8659 Cl  0  0  0  0  0  0  0  0  0  0  0  0
    8.3984  -17.2265    6.7182 C   0  0  0  0  0  0  0  0  0  0  0  0
    7.6420  -14.6608    8.1944 C   0  0  0  0  0  0  0  0  0  0  0  0
    7.1073  -13.8371    9.1780 C   0  0  0  0  0  0  0  0  0  0  0  0
    5.4078  -13.4241   12.2748 N   0  0  0  0  0  0  0  0  0  0  0  0
    5.5680  -14.6770   12.9991 C   0  0  0  0  0  0  0  0  0  0  0  0
    4.2042  -15.1210   13.4724 C   0  0  0  0  0  0  0  0  0  0  0  0
    6.7579  -11.4287   11.2524 O   0  0  0  0  0  0  0  0  0  0  0  0
  1  2  2  0
  2  3  1  0
  2 23  1  1
  2 26  2  0
  3 22  2  0
  3  4  1  0
  4  5  2  0
  5  6  1  0
  6  7  1  0
  6 21  2  0
  7 20  1  0
  7  8  2  0
  8  9  1  0
 10  9  1  1
  9 17  2  0
 10 16  1  0
 10 11  1  0
 14 10  1  6
 11 12  1  0
 11 13  2  3
 15 14  1  6
 16 15  1  1
 17 18  1  0
 18 19  1  0
 18 20  2  0
 21 22  1  0
 24 23  1  6
 25 24  1  1
M  CHG  1  13   1
M  END
$$$$
