
     RDKit          3D

 26 28  0  0  0  0  0  0  0  0999 V2000
    4.2486   -3.3248    1.6761 O   0  0  0  0  0  0  0  0  0  0  0  0
    5.2427   -2.3234    1.2037 S   0  0  1  0  0  6  0  0  0  0  0  0
    6.5090   -3.1604    0.3223 C   0  0  0  0  0  0  0  0  0  0  0  0
    6.3601   -4.4841   -0.0352 C   0  0  0  0  0  0  0  0  0  0  0  0
    7.3463   -5.1551   -0.7276 C   0  0  0  0  0  0  0  0  0  0  0  0
    8.5263   -4.5389   -1.0959 C   0  0  0  0  0  0  0  0  0  0  0  0
    9.5682   -5.2488   -1.8276 C   0  0  0  0  0  0  0  0  0  0  0  0
   10.1199   -4.7740   -3.0139 C   0  0  0  0  0  0  0  0  0  0  0  0
   11.0952   -5.4457   -3.6923 C   0  0  0  0  0  0  0  0  0  0  0  0
   11.7005   -4.9785   -4.9424 C   0  0  1  0  0  0  0  0  0  0  0  0
   10.7147   -4.8649   -6.0245 C   0  0  0  0  0  0  0  0  0  0  0  0
    9.8132   -5.9467   -6.1983 N   0  0  0  0  0  0  0  0  0  0  0  0
   10.6155   -3.8481   -6.8203 N   0  0  0  0  0  4  0  0  0  0  0  0
   12.4651   -3.6866   -4.7269 C   0  0  0  0  0  0  0  0  0  0  0  0
   13.6891   -4.5724   -4.4477 C   0  0  0  0  0  0  0  0  0  0  0  0
   13.0151   -5.6109   -5.3276 C   0  0  0  0  0  0  0  0  0  0  0  0
   11.5372   -6.6380   -3.1662 C   0  0  0  0  0  0  0  0  0  0  0  0
   11.0279   -7.1678   -1.9854 C   0  0  0  0  0  0  0  0  0  0  0  0
   11.5792   -8.6711   -1.3141 Cl  0  0  0  0  0  0  0  0  0  0  0  0
   10.0417   -6.4471   -1.3384 C   0  0  0  0  0  0  0  0  0  0  0  0
    8.6735   -3.2132   -0.7369 C   0  0  0  0  0  0  0  0  0  0  0  0
    7.6825   -2.5330   -0.0392 C   0  0  0  0  0  0  0  0  0  0  0  0
    4.4294   -1.1874    0.1860 N   0  0  0  0  0  0  0  0  0  0  0  0
    3.3931   -1.8439   -0.5982 C   0  0  0  0  0  0  0  0  0  0  0  0
    2.9229   -0.8744   -1.6565 C   0  0  0  0  0  0  0  0  0  0  0  0
    5.7857   -1.5962    2.3867 O   0  0  0  0  0  0  0  0  0  0  0  0
  1  2  2  0
  2  3  1  0
  2 23  1  6
  2 26  2  0
  3 22  2  0
  3  4  1  0
  4  5  2  0
  5  6  1  0
  6  7  1  0
  6 21  2  0
  7 20  1  0
  7  8  2  0
  8  9  1  0
 10  9  1  1
  9 17  2  0
 10 16  1  0
 10 11  1  0
 14 10  1  6
 11 12  1  0
 11 13  2  3
 15 14  1  6
 16 15  1  1
 17 18  1  0
 18 19  1  0
 18 20  2  0
 21 22  1  0
 24 23  1  6
 25 24  1  1
M  CHG  1  13   1
M  END
$$$$
