
     RDKit          3D

 26 28  0  0  0  0  0  0  0  0999 V2000
   10.0551  -14.8139    5.2545 O   0  0  0  0  0  0  0  0  0  0  0  0
   10.7159  -15.0932    6.5582 S   0  0  1  0  0  6  0  0  0  0  0  0
    9.4939  -15.0991    7.8182 C   0  0  0  0  0  0  0  0  0  0  0  0
    8.1634  -15.2855    7.5067 C   0  0  0  0  0  0  0  0  0  0  0  0
    7.1919  -15.2924    8.4857 C   0  0  0  0  0  0  0  0  0  0  0  0
    7.5007  -15.1141    9.8202 C   0  0  0  0  0  0  0  0  0  0  0  0
    6.4733  -15.1216   10.8543 C   0  0  0  0  0  0  0  0  0  0  0  0
    6.6011  -14.4305   12.0556 C   0  0  0  0  0  0  0  0  0  0  0  0
    5.6337  -14.4433   13.0182 C   0  0  0  0  0  0  0  0  0  0  0  0
    5.7313  -13.7288   14.2939 C   0  0  1  0  0  0  0  0  0  0  0  0
    5.3891  -12.3075   14.1583 C   0  0  0  0  0  0  0  0  0  0  0  0
    4.0261  -11.9489   14.3213 N   0  0  0  0  0  0  0  0  0  0  0  0
    6.2454  -11.3696   13.9048 N   0  0  0  0  0  4  0  0  0  0  0  0
    4.9080  -14.4159   15.3664 C   0  0  0  0  0  0  0  0  0  0  0  0
    6.1811  -15.2101   15.6966 C   0  0  0  0  0  0  0  0  0  0  0  0
    6.9477  -14.0247   15.1361 C   0  0  0  0  0  0  0  0  0  0  0  0
    4.4942  -15.1744   12.7723 C   0  0  0  0  0  0  0  0  0  0  0  0
    4.3039  -15.8872   11.5932 C   0  0  0  0  0  0  0  0  0  0  0  0
    2.8699  -16.8124   11.2742 Cl  0  0  0  0  0  0  0  0  0  0  0  0
    5.3149  -15.8403   10.6517 C   0  0  0  0  0  0  0  0  0  0  0  0
    8.8338  -14.9277   10.1301 C   0  0  0  0  0  0  0  0  0  0  0  0
    9.8161  -14.9200    9.1469 C   0  0  0  0  0  0  0  0  0  0  0  0
   11.5012  -16.6294    6.4523 N   0  0  0  0  0  0  0  0  0  0  0  0
   10.6000  -17.6352    5.9082 C   0  0  0  0  0  0  0  0  0  0  0  0
   11.3193  -18.9632    5.9210 C   0  0  0  0  0  0  0  0  0  0  0  0
   11.7507  -14.0476    6.8017 O   0  0  0  0  0  0  0  0  0  0  0  0
  1  2  2  0
  2  3  1  0
  2 23  1  6
  2 26  2  0
  3 22  2  0
  3  4  1  0
  4  5  2  0
  5  6  1  0
  6  7  1  0
  6 21  2  0
  7 20  1  0
  7  8  2  0
  8  9  1  0
 10  9  1  6
  9 17  2  0
 10 16  1  0
 10 11  1  0
 14 10  1  6
 11 12  1  0
 11 13  2  3
 15 14  1  6
 16 15  1  1
 17 18  1  0
 18 19  1  0
 18 20  2  0
 21 22  1  0
 24 23  1  6
 25 24  1  1
M  CHG  1  13   1
M  END
$$$$
