
     RDKit          3D

 26 28  0  0  0  0  0  0  0  0999 V2000
    6.4535   -3.8705   -3.5561 O   0  0  0  0  0  0  0  0  0  0  0  0
    6.0847   -3.4036   -2.1923 S   0  0  1  0  0  6  0  0  0  0  0  0
    4.5170   -4.0729   -1.7734 C   0  0  0  0  0  0  0  0  0  0  0  0
    3.8372   -4.8804   -2.6610 C   0  0  0  0  0  0  0  0  0  0  0  0
    2.6047   -5.4134   -2.3462 C   0  0  0  0  0  0  0  0  0  0  0  0
    1.9923   -5.1667   -1.1329 C   0  0  0  0  0  0  0  0  0  0  0  0
    0.6896   -5.7304   -0.8010 C   0  0  0  0  0  0  0  0  0  0  0  0
   -0.3683   -5.7792   -1.7042 C   0  0  0  0  0  0  0  0  0  0  0  0
   -1.5847   -6.3090   -1.3844 C   0  0  0  0  0  0  0  0  0  0  0  0
   -2.7212   -6.3786   -2.3069 C   0  0  1  0  0  0  0  0  0  0  0  0
   -2.9169   -7.7323   -2.8407 C   0  0  0  0  0  0  0  0  0  0  0  0
   -4.2362   -8.2539   -2.8213 N   0  0  0  0  0  0  0  0  0  0  0  0
   -1.9708   -8.4715   -3.3260 N   0  0  0  0  0  4  0  0  0  0  0  0
   -3.9796   -5.8303   -1.6620 C   0  0  0  0  0  0  0  0  0  0  0  0
   -3.5688   -4.4702   -2.2470 C   0  0  0  0  0  0  0  0  0  0  0  0
   -2.8350   -5.2621   -3.3153 C   0  0  0  0  0  0  0  0  0  0  0  0
   -1.7520   -6.8097   -0.1137 C   0  0  0  0  0  0  0  0  0  0  0  0
   -0.7361   -6.7916    0.8361 C   0  0  0  0  0  0  0  0  0  0  0  0
   -0.9377   -7.4208    2.4415 Cl  0  0  0  0  0  0  0  0  0  0  0  0
    0.4761   -6.2437    0.4601 C   0  0  0  0  0  0  0  0  0  0  0  0
    2.6748   -4.3577   -0.2454 C   0  0  0  0  0  0  0  0  0  0  0  0
    3.9169   -3.8185   -0.5583 C   0  0  0  0  0  0  0  0  0  0  0  0
    7.3003   -3.9393   -1.0863 N   0  0  0  0  0  0  0  0  0  0  0  0
    7.6909   -2.8641   -0.1856 C   0  0  0  0  0  0  0  0  0  0  0  0
    8.8978   -3.3249    0.5967 C   0  0  0  0  0  0  0  0  0  0  0  0
    6.0640   -1.9127   -2.1882 O   0  0  0  0  0  0  0  0  0  0  0  0
  1  2  2  0
  2  3  1  0
  2 23  1  1
  2 26  2  0
  3 22  2  0
  3  4  1  0
  4  5  2  0
  5  6  1  0
  6  7  1  0
  6 21  2  0
  7 20  1  0
  7  8  2  0
  8  9  1  0
 10  9  1  1
  9 17  2  0
 10 16  1  0
 10 11  1  0
 14 10  1  6
 11 12  1  0
 11 13  2  3
 15 14  1  6
 16 15  1  1
 17 18  1  0
 18 19  1  0
 18 20  2  0
 21 22  1  0
 24 23  1  6
 25 24  1  1
M  CHG  1  13   1
M  END
$$$$
