
     RDKit          3D

 26 28  0  0  0  0  0  0  0  0999 V2000
   14.0755  -12.9865    7.9926 O   0  0  0  0  0  0  0  0  0  0  0  0
   13.2094  -13.7280    7.0366 S   0  0  1  0  0  6  0  0  0  0  0  0
   11.7380  -14.2067    7.8653 C   0  0  0  0  0  0  0  0  0  0  0  0
   11.2144  -13.4272    8.8754 C   0  0  0  0  0  0  0  0  0  0  0  0
   10.0593  -13.7903    9.5359 C   0  0  0  0  0  0  0  0  0  0  0  0
    9.3724  -14.9466    9.2209 C   0  0  0  0  0  0  0  0  0  0  0  0
    8.1517  -15.3297    9.9194 C   0  0  0  0  0  0  0  0  0  0  0  0
    7.3055  -14.4080   10.5293 C   0  0  0  0  0  0  0  0  0  0  0  0
    6.1644  -14.7761   11.1812 C   0  0  0  0  0  0  0  0  0  0  0  0
    5.2491  -13.8363   11.8342 C   0  0  1  0  0  0  0  0  0  0  0  0
    4.0436  -13.5925   11.0325 C   0  0  0  0  0  0  0  0  0  0  0  0
    4.1572  -12.6847    9.9480 N   0  0  0  0  0  0  0  0  0  0  0  0
    2.8953  -14.1507   11.2490 N   0  0  0  0  0  4  0  0  0  0  0  0
    4.9174  -14.2901   13.2428 C   0  0  0  0  0  0  0  0  0  0  0  0
    6.1235  -13.4508   13.6919 C   0  0  0  0  0  0  0  0  0  0  0  0
    5.8755  -12.6103   12.4513 C   0  0  0  0  0  0  0  0  0  0  0  0
    5.8556  -16.1162   11.2264 C   0  0  0  0  0  0  0  0  0  0  0  0
    6.6580  -17.0879   10.6377 C   0  0  0  0  0  0  0  0  0  0  0  0
    6.2766  -18.7809   10.6896 Cl  0  0  0  0  0  0  0  0  0  0  0  0
    7.8022  -16.6609    9.9902 C   0  0  0  0  0  0  0  0  0  0  0  0
    9.8985  -15.7259    8.2090 C   0  0  0  0  0  0  0  0  0  0  0  0
   11.0621  -15.3640    7.5407 C   0  0  0  0  0  0  0  0  0  0  0  0
   12.8560  -12.6873    5.7024 N   0  0  0  0  0  0  0  0  0  0  0  0
   12.9245  -11.2894    6.1039 C   0  0  0  0  0  0  0  0  0  0  0  0
   12.7826  -10.4394    4.8636 C   0  0  0  0  0  0  0  0  0  0  0  0
   13.9630  -14.9102    6.5288 O   0  0  0  0  0  0  0  0  0  0  0  0
  1  2  2  0
  2  3  1  0
  2 23  1  6
  2 26  2  0
  3 22  2  0
  3  4  1  0
  4  5  2  0
  5  6  1  0
  6  7  1  0
  6 21  2  0
  7 20  1  0
  7  8  2  0
  8  9  1  0
 10  9  1  6
  9 17  2  0
 10 16  1  0
 10 11  1  0
 14 10  1  6
 11 12  1  0
 11 13  2  3
 15 14  1  6
 16 15  1  1
 17 18  1  0
 18 19  1  0
 18 20  2  0
 21 22  1  0
 24 23  1  6
 25 24  1  1
M  CHG  1  13   1
M  END
$$$$
