
     RDKit          3D

 26 28  0  0  0  0  0  0  0  0999 V2000
    4.9238  -14.6618   15.8196 O   0  0  0  0  0  0  0  0  0  0  0  0
    4.8982  -13.6929   14.6906 S   0  0  1  0  0  6  0  0  0  0  0  0
    5.0422  -14.5812   13.1836 C   0  0  0  0  0  0  0  0  0  0  0  0
    4.6589  -14.0072   11.9895 C   0  0  0  0  0  0  0  0  0  0  0  0
    4.7660  -14.6927   10.7975 C   0  0  0  0  0  0  0  0  0  0  0  0
    5.2597  -15.9815   10.7397 C   0  0  0  0  0  0  0  0  0  0  0  0
    5.3724  -16.7053    9.4793 C   0  0  0  0  0  0  0  0  0  0  0  0
    6.4016  -16.4864    8.5682 C   0  0  0  0  0  0  0  0  0  0  0  0
    6.4991  -17.1690    7.3905 C   0  0  0  0  0  0  0  0  0  0  0  0
    7.5667  -16.9672    6.4072 C   0  0  1  0  0  0  0  0  0  0  0  0
    7.0472  -16.4981    5.1166 C   0  0  0  0  0  0  0  0  0  0  0  0
    6.8408  -17.4726    4.1063 N   0  0  0  0  0  0  0  0  0  0  0  0
    6.7655  -15.2633    4.8463 N   0  0  0  0  0  4  0  0  0  0  0  0
    8.6459  -16.0539    6.9558 C   0  0  0  0  0  0  0  0  0  0  0  0
    9.3328  -17.3317    7.4617 C   0  0  0  0  0  0  0  0  0  0  0  0
    8.6177  -18.0469    6.3285 C   0  0  0  0  0  0  0  0  0  0  0  0
    5.5316  -18.1067    7.1109 C   0  0  0  0  0  0  0  0  0  0  0  0
    4.4773  -18.3736    7.9780 C   0  0  0  0  0  0  0  0  0  0  0  0
    3.2522  -19.5547    7.6340 Cl  0  0  0  0  0  0  0  0  0  0  0  0
    4.4261  -17.6540    9.1571 C   0  0  0  0  0  0  0  0  0  0  0  0
    5.6430  -16.5545   11.9366 C   0  0  0  0  0  0  0  0  0  0  0  0
    5.5370  -15.8676   13.1401 C   0  0  0  0  0  0  0  0  0  0  0  0
    3.4062  -12.8224   14.7541 N   0  0  0  0  0  0  0  0  0  0  0  0
    2.2818  -13.7333   14.9150 C   0  0  0  0  0  0  0  0  0  0  0  0
    1.0209  -12.9073   15.0098 C   0  0  0  0  0  0  0  0  0  0  0  0
    6.0192  -12.7256   14.8671 O   0  0  0  0  0  0  0  0  0  0  0  0
  1  2  2  0
  2  3  1  0
  2 23  1  6
  2 26  2  0
  3 22  2  0
  3  4  1  0
  4  5  2  0
  5  6  1  0
  6  7  1  0
  6 21  2  0
  7 20  1  0
  7  8  2  0
  8  9  1  0
 10  9  1  1
  9 17  2  0
 10 16  1  0
 10 11  1  0
 14 10  1  6
 11 12  1  0
 11 13  2  3
 15 14  1  6
 16 15  1  1
 17 18  1  0
 18 19  1  0
 18 20  2  0
 21 22  1  0
 24 23  1  6
 25 24  1  1
M  CHG  1  13   1
M  END
$$$$
