
     RDKit          3D

 26 28  0  0  0  0  0  0  0  0999 V2000
   28.5845  -13.1347   -8.2024 O   0  0  0  0  0  0  0  0  0  0  0  0
   27.2089  -12.8190   -8.6737 S   0  0  1  0  0  6  0  0  0  0  0  0
   27.2420  -12.6276  -10.4181 C   0  0  0  0  0  0  0  0  0  0  0  0
   26.5600  -11.5941  -11.0253 C   0  0  0  0  0  0  0  0  0  0  0  0
   26.5765  -11.4309  -12.3948 C   0  0  0  0  0  0  0  0  0  0  0  0
   27.2730  -12.2896  -13.2227 C   0  0  0  0  0  0  0  0  0  0  0  0
   27.2899  -12.1164  -14.6700 C   0  0  0  0  0  0  0  0  0  0  0  0
   28.3390  -11.5031  -15.3485 C   0  0  0  0  0  0  0  0  0  0  0  0
   28.3462  -11.3453  -16.7041 C   0  0  0  0  0  0  0  0  0  0  0  0
   29.4312  -10.7062  -17.4535 C   0  0  1  0  0  0  0  0  0  0  0  0
   29.4389   -9.2484  -17.2787 C   0  0  0  0  0  0  0  0  0  0  0  0
   30.1426   -8.7318  -16.1603 N   0  0  0  0  0  0  0  0  0  0  0  0
   28.8520   -8.4127  -18.0752 N   0  0  0  0  0  4  0  0  0  0  0  0
   30.7701  -11.3307  -17.1111 C   0  0  0  0  0  0  0  0  0  0  0  0
   30.5094  -12.2931  -18.2801 C   0  0  0  0  0  0  0  0  0  0  0  0
   29.6452  -11.1902  -18.8664 C   0  0  0  0  0  0  0  0  0  0  0  0
   27.2639  -11.8181  -17.4103 C   0  0  0  0  0  0  0  0  0  0  0  0
   26.1836  -12.4403  -16.7936 C   0  0  0  0  0  0  0  0  0  0  0  0
   24.8140  -13.0399  -17.6761 Cl  0  0  0  0  0  0  0  0  0  0  0  0
   26.2272  -12.5744  -15.4185 C   0  0  0  0  0  0  0  0  0  0  0  0
   27.9555  -13.3240  -12.6127 C   0  0  0  0  0  0  0  0  0  0  0  0
   27.9417  -13.4923  -11.2331 C   0  0  0  0  0  0  0  0  0  0  0  0
   26.1648  -14.1179   -8.2147 N   0  0  0  0  0  0  0  0  0  0  0  0
   24.7731  -13.6900   -8.2196 C   0  0  0  0  0  0  0  0  0  0  0  0
   23.9618  -14.7299   -7.4839 C   0  0  0  0  0  0  0  0  0  0  0  0
   26.7457  -11.5756   -7.9936 O   0  0  0  0  0  0  0  0  0  0  0  0
  1  2  2  0
  2  3  1  0
  2 23  1  6
  2 26  2  0
  3 22  2  0
  3  4  1  0
  4  5  2  0
  5  6  1  0
  6  7  1  0
  6 21  2  0
  7 20  1  0
  7  8  2  0
  8  9  1  0
 10  9  1  1
  9 17  2  0
 10 16  1  0
 10 11  1  0
 14 10  1  6
 11 12  1  0
 11 13  2  3
 15 14  1  6
 16 15  1  1
 17 18  1  0
 18 19  1  0
 18 20  2  0
 21 22  1  0
 24 23  1  6
 25 24  1  1
M  CHG  1  13   1
M  END
$$$$
