
     RDKit          3D

 26 28  0  0  0  0  0  0  0  0999 V2000
    3.5042  -18.5088    6.9221 O   0  0  0  0  0  0  0  0  0  0  0  0
    3.8114  -17.0564    6.8208 S   0  0  1  0  0  6  0  0  0  0  0  0
    4.0932  -16.4271    8.4349 C   0  0  0  0  0  0  0  0  0  0  0  0
    4.0455  -15.0706    8.6792 C   0  0  0  0  0  0  0  0  0  0  0  0
    4.2650  -14.5612    9.9420 C   0  0  0  0  0  0  0  0  0  0  0  0
    4.5422  -15.3794   11.0198 C   0  0  0  0  0  0  0  0  0  0  0  0
    4.7741  -14.8402   12.3542 C   0  0  0  0  0  0  0  0  0  0  0  0
    6.0382  -14.7607   12.9311 C   0  0  0  0  0  0  0  0  0  0  0  0
    6.2457  -14.2542   14.1813 C   0  0  0  0  0  0  0  0  0  0  0  0
    7.5599  -14.1535   14.8218 C   0  0  1  0  0  0  0  0  0  0  0  0
    7.8845  -15.3508   15.6072 C   0  0  0  0  0  0  0  0  0  0  0  0
    7.6613  -15.2898   17.0070 N   0  0  0  0  0  0  0  0  0  0  0  0
    8.3542  -16.4491   15.1069 N   0  0  0  0  0  4  0  0  0  0  0  0
    8.6368  -13.8266   13.8052 C   0  0  0  0  0  0  0  0  0  0  0  0
    8.3518  -12.3508   14.1238 C   0  0  0  0  0  0  0  0  0  0  0  0
    7.8832  -12.8371   15.4843 C   0  0  0  0  0  0  0  0  0  0  0  0
    5.1488  -13.8098   14.8833 C   0  0  0  0  0  0  0  0  0  0  0  0
    3.8592  -13.8611   14.3648 C   0  0  0  0  0  0  0  0  0  0  0  0
    2.4694  -13.3029   15.2429 Cl  0  0  0  0  0  0  0  0  0  0  0  0
    3.7050  -14.3832   13.0943 C   0  0  0  0  0  0  0  0  0  0  0  0
    4.5896  -16.7377   10.7732 C   0  0  0  0  0  0  0  0  0  0  0  0
    4.3690  -17.2554    9.5023 C   0  0  0  0  0  0  0  0  0  0  0  0
    5.2144  -16.8647    5.8296 N   0  0  0  0  0  0  0  0  0  0  0  0
    5.0038  -17.4534    4.5146 C   0  0  0  0  0  0  0  0  0  0  0  0
    6.3330  -17.4850    3.7983 C   0  0  0  0  0  0  0  0  0  0  0  0
    2.6650  -16.3719    6.1570 O   0  0  0  0  0  0  0  0  0  0  0  0
  1  2  2  0
  2  3  1  0
  2 23  1  6
  2 26  2  0
  3 22  2  0
  3  4  1  0
  4  5  2  0
  5  6  1  0
  6  7  1  0
  6 21  2  0
  7 20  1  0
  7  8  2  0
  8  9  1  0
 10  9  1  6
  9 17  2  0
 10 16  1  0
 10 11  1  0
 14 10  1  6
 11 12  1  0
 11 13  2  3
 15 14  1  6
 16 15  1  1
 17 18  1  0
 18 19  1  0
 18 20  2  0
 21 22  1  0
 24 23  1  6
 25 24  1  1
M  CHG  1  13   1
M  END
$$$$
