
     RDKit          3D

 26 28  0  0  0  0  0  0  0  0999 V2000
    6.9853  -13.1775   16.4944 O   0  0  0  0  0  0  0  0  0  0  0  0
    5.7408  -12.7166   15.8213 S   0  0  1  0  0  6  0  0  0  0  0  0
    5.6051  -13.5300   14.2719 C   0  0  0  0  0  0  0  0  0  0  0  0
    5.0796  -12.8755   13.1776 C   0  0  0  0  0  0  0  0  0  0  0  0
    4.9664  -13.5014   11.9537 C   0  0  0  0  0  0  0  0  0  0  0  0
    5.3713  -14.8082   11.7634 C   0  0  0  0  0  0  0  0  0  0  0  0
    5.2513  -15.4691   10.4696 C   0  0  0  0  0  0  0  0  0  0  0  0
    4.7531  -16.7601   10.3204 C   0  0  0  0  0  0  0  0  0  0  0  0
    4.6445  -17.3709    9.1048 C   0  0  0  0  0  0  0  0  0  0  0  0
    4.1251  -18.7269    8.9076 C   0  0  1  0  0  0  0  0  0  0  0  0
    5.1233  -19.7532    9.2331 C   0  0  0  0  0  0  0  0  0  0  0  0
    5.9914  -20.1691    8.1907 N   0  0  0  0  0  0  0  0  0  0  0  0
    5.2618  -20.2950   10.4012 N   0  0  0  0  0  4  0  0  0  0  0  0
    2.8282  -18.9285    9.6674 C   0  0  0  0  0  0  0  0  0  0  0  0
    2.1199  -18.4551    8.3888 C   0  0  0  0  0  0  0  0  0  0  0  0
    3.3397  -18.9659    7.6417 C   0  0  0  0  0  0  0  0  0  0  0  0
    5.0488  -16.6657    7.9945 C   0  0  0  0  0  0  0  0  0  0  0  0
    5.5554  -15.3728    8.0744 C   0  0  0  0  0  0  0  0  0  0  0  0
    6.0679  -14.4754    6.6794 Cl  0  0  0  0  0  0  0  0  0  0  0  0
    5.6440  -14.8011    9.3298 C   0  0  0  0  0  0  0  0  0  0  0  0
    5.8974  -15.4621   12.8605 C   0  0  0  0  0  0  0  0  0  0  0  0
    6.0133  -14.8353   14.0956 C   0  0  0  0  0  0  0  0  0  0  0  0
    4.3975  -13.0995   16.8395 N   0  0  0  0  0  0  0  0  0  0  0  0
    3.1542  -12.6072   16.2634 C   0  0  0  0  0  0  0  0  0  0  0  0
    2.0388  -12.9002   17.2387 C   0  0  0  0  0  0  0  0  0  0  0  0
    5.8064  -11.2357   15.6601 O   0  0  0  0  0  0  0  0  0  0  0  0
  1  2  2  0
  2  3  1  0
  2 23  1  1
  2 26  2  0
  3 22  2  0
  3  4  1  0
  4  5  2  0
  5  6  1  0
  6  7  1  0
  6 21  2  0
  7 20  1  0
  7  8  2  0
  8  9  1  0
 10  9  1  6
  9 17  2  0
 10 16  1  0
 10 11  1  0
 14 10  1  6
 11 12  1  0
 11 13  2  3
 15 14  1  6
 16 15  1  1
 17 18  1  0
 18 19  1  0
 18 20  2  0
 21 22  1  0
 24 23  1  6
 25 24  1  1
M  CHG  1  13   1
M  END
$$$$
