
     RDKit          3D

 26 28  0  0  0  0  0  0  0  0999 V2000
    4.6005  -16.7682   14.4031 O   0  0  0  0  0  0  0  0  0  0  0  0
    4.9093  -15.4848   13.7163 S   0  0  1  0  0  6  0  0  0  0  0  0
    5.6599  -15.8406   12.1700 C   0  0  0  0  0  0  0  0  0  0  0  0
    5.4353  -17.0469   11.5403 C   0  0  0  0  0  0  0  0  0  0  0  0
    6.0181  -17.3410   10.3253 C   0  0  0  0  0  0  0  0  0  0  0  0
    6.8514  -16.4472    9.6814 C   0  0  0  0  0  0  0  0  0  0  0  0
    7.4670  -16.7588    8.3973 C   0  0  0  0  0  0  0  0  0  0  0  0
    8.7967  -16.4707    8.1036 C   0  0  0  0  0  0  0  0  0  0  0  0
    9.3645  -16.7661    6.8983 C   0  0  0  0  0  0  0  0  0  0  0  0
   10.7593  -16.4792    6.5521 C   0  0  1  0  0  0  0  0  0  0  0  0
   10.9628  -15.0672    6.2053 C   0  0  0  0  0  0  0  0  0  0  0  0
   11.2976  -14.1805    7.2611 N   0  0  0  0  0  0  0  0  0  0  0  0
   10.8600  -14.5856    5.0075 N   0  0  0  0  0  4  0  0  0  0  0  0
   11.6980  -16.9398    7.6506 C   0  0  0  0  0  0  0  0  0  0  0  0
   11.7694  -18.2755    6.8945 C   0  0  0  0  0  0  0  0  0  0  0  0
   11.4429  -17.4736    5.6465 C   0  0  0  0  0  0  0  0  0  0  0  0
    8.5746  -17.3728    5.9488 C   0  0  0  0  0  0  0  0  0  0  0  0
    7.2393  -17.6875    6.1783 C   0  0  0  0  0  0  0  0  0  0  0  0
    6.2350  -18.4528    4.9867 Cl  0  0  0  0  0  0  0  0  0  0  0  0
    6.7141  -17.3666    7.4160 C   0  0  0  0  0  0  0  0  0  0  0  0
    7.0751  -15.2397   10.3137 C   0  0  0  0  0  0  0  0  0  0  0  0
    6.4900  -14.9390   11.5380 C   0  0  0  0  0  0  0  0  0  0  0  0
    3.4319  -14.6141   13.4998 N   0  0  0  0  0  0  0  0  0  0  0  0
    3.6875  -13.2873   12.9575 C   0  0  0  0  0  0  0  0  0  0  0  0
    2.3684  -12.5572   12.8669 C   0  0  0  0  0  0  0  0  0  0  0  0
    5.8096  -14.6804   14.5915 O   0  0  0  0  0  0  0  0  0  0  0  0
  1  2  2  0
  2  3  1  0
  2 23  1  6
  2 26  2  0
  3 22  2  0
  3  4  1  0
  4  5  2  0
  5  6  1  0
  6  7  1  0
  6 21  2  0
  7 20  1  0
  7  8  2  0
  8  9  1  0
 10  9  1  1
  9 17  2  0
 10 16  1  0
 10 11  1  0
 14 10  1  6
 11 12  1  0
 11 13  2  3
 15 14  1  6
 16 15  1  1
 17 18  1  0
 18 19  1  0
 18 20  2  0
 21 22  1  0
 24 23  1  6
 25 24  1  1
M  CHG  1  13   1
M  END
$$$$
