
     RDKit          3D

 26 28  0  0  0  0  0  0  0  0999 V2000
   12.0294  -15.2373    5.1480 O   0  0  0  0  0  0  0  0  0  0  0  0
   12.1475  -16.1671    6.3037 S   0  0  1  0  0  6  0  0  0  0  0  0
   10.6349  -16.1528    7.1940 C   0  0  0  0  0  0  0  0  0  0  0  0
   10.6202  -16.3509    8.5588 C   0  0  0  0  0  0  0  0  0  0  0  0
    9.4397  -16.3426    9.2719 C   0  0  0  0  0  0  0  0  0  0  0  0
    8.2192  -16.1367    8.6587 C   0  0  0  0  0  0  0  0  0  0  0  0
    6.9719  -16.1282    9.4132 C   0  0  0  0  0  0  0  0  0  0  0  0
    6.8089  -15.4220   10.6014 C   0  0  0  0  0  0  0  0  0  0  0  0
    5.6371  -15.4199   11.3011 C   0  0  0  0  0  0  0  0  0  0  0  0
    5.4269  -14.6894   12.5540 C   0  0  1  0  0  0  0  0  0  0  0  0
    5.9632  -15.4146   13.7125 C   0  0  0  0  0  0  0  0  0  0  0  0
    5.1487  -16.4297   14.2774 N   0  0  0  0  0  0  0  0  0  0  0  0
    7.1227  -15.1901   14.2438 N   0  0  0  0  0  4  0  0  0  0  0  0
    5.9738  -13.2781   12.4590 C   0  0  0  0  0  0  0  0  0  0  0  0
    4.5742  -12.8737   11.9709 C   0  0  0  0  0  0  0  0  0  0  0  0
    4.0636  -14.0736   12.7497 C   0  0  0  0  0  0  0  0  0  0  0  0
    4.5869  -16.1510   10.7951 C   0  0  0  0  0  0  0  0  0  0  0  0
    4.6838  -16.8783    9.6135 C   0  0  0  0  0  0  0  0  0  0  0  0
    3.3644  -17.8036    8.9675 Cl  0  0  0  0  0  0  0  0  0  0  0  0
    5.8930  -16.8463    8.9445 C   0  0  0  0  0  0  0  0  0  0  0  0
    8.2360  -15.9386    7.2918 C   0  0  0  0  0  0  0  0  0  0  0  0
    9.4232  -15.9461    6.5691 C   0  0  0  0  0  0  0  0  0  0  0  0
   12.4920  -17.7485    5.6969 N   0  0  0  0  0  0  0  0  0  0  0  0
   11.8333  -17.9668    4.4169 C   0  0  0  0  0  0  0  0  0  0  0  0
   12.3545  -19.2606    3.8376 C   0  0  0  0  0  0  0  0  0  0  0  0
   13.2898  -15.7268    7.1549 O   0  0  0  0  0  0  0  0  0  0  0  0
  1  2  2  0
  2  3  1  0
  2 23  1  6
  2 26  2  0
  3 22  2  0
  3  4  1  0
  4  5  2  0
  5  6  1  0
  6  7  1  0
  6 21  2  0
  7 20  1  0
  7  8  2  0
  8  9  1  0
 10  9  1  6
  9 17  2  0
 10 16  1  0
 10 11  1  0
 14 10  1  6
 11 12  1  0
 11 13  2  3
 15 14  1  6
 16 15  1  1
 17 18  1  0
 18 19  1  0
 18 20  2  0
 21 22  1  0
 24 23  1  6
 25 24  1  1
M  CHG  1  13   1
M  END
$$$$
