
     RDKit          3D

 26 28  0  0  0  0  0  0  0  0999 V2000
    9.4004  -14.5410    5.7889 O   0  0  0  0  0  0  0  0  0  0  0  0
    9.1971  -15.7677    6.6062 S   0  0  1  0  0  6  0  0  0  0  0  0
    8.2773  -15.3426    8.0394 C   0  0  0  0  0  0  0  0  0  0  0  0
    7.9338  -16.3049    8.9657 C   0  0  0  0  0  0  0  0  0  0  0  0
    7.2112  -15.9862   10.0965 C   0  0  0  0  0  0  0  0  0  0  0  0
    6.7974  -14.6944   10.3569 C   0  0  0  0  0  0  0  0  0  0  0  0
    6.0337  -14.3584   11.5523 C   0  0  0  0  0  0  0  0  0  0  0  0
    6.4549  -14.6844   12.8382 C   0  0  0  0  0  0  0  0  0  0  0  0
    5.7331  -14.3657   13.9517 C   0  0  0  0  0  0  0  0  0  0  0  0
    6.1432  -14.6910   15.3204 C   0  0  1  0  0  0  0  0  0  0  0  0
    5.5614  -15.9563   15.7851 C   0  0  0  0  0  0  0  0  0  0  0  0
    4.2979  -15.8933   16.4277 N   0  0  0  0  0  0  0  0  0  0  0  0
    6.1220  -17.1152   15.6440 N   0  0  0  0  0  4  0  0  0  0  0  0
    7.6537  -14.6723   15.4546 C   0  0  0  0  0  0  0  0  0  0  0  0
    7.5034  -13.1914   15.8356 C   0  0  0  0  0  0  0  0  0  0  0  0
    6.1102  -13.5584   16.3167 C   0  0  0  0  0  0  0  0  0  0  0  0
    4.5444  -13.6954   13.7751 C   0  0  0  0  0  0  0  0  0  0  0  0
    4.0668  -13.3401   12.5181 C   0  0  0  0  0  0  0  0  0  0  0  0
    2.5685  -12.4945   12.2855 Cl  0  0  0  0  0  0  0  0  0  0  0  0
    4.8370  -13.6870   11.4239 C   0  0  0  0  0  0  0  0  0  0  0  0
    7.1425  -13.7320    9.4281 C   0  0  0  0  0  0  0  0  0  0  0  0
    7.8705  -14.0486    8.2872 C   0  0  0  0  0  0  0  0  0  0  0  0
    8.3453  -16.9260    5.6468 N   0  0  0  0  0  0  0  0  0  0  0  0
    7.2105  -16.3082    4.9756 C   0  0  0  0  0  0  0  0  0  0  0  0
    6.6702  -17.2944    3.9673 C   0  0  0  0  0  0  0  0  0  0  0  0
   10.5314  -16.3328    6.9578 O   0  0  0  0  0  0  0  0  0  0  0  0
  1  2  2  0
  2  3  1  0
  2 23  1  6
  2 26  2  0
  3 22  2  0
  3  4  1  0
  4  5  2  0
  5  6  1  0
  6  7  1  0
  6 21  2  0
  7 20  1  0
  7  8  2  0
  8  9  1  0
 10  9  1  6
  9 17  2  0
 10 16  1  0
 10 11  1  0
 14 10  1  6
 11 12  1  0
 11 13  2  3
 15 14  1  6
 16 15  1  1
 17 18  1  0
 18 19  1  0
 18 20  2  0
 21 22  1  0
 24 23  1  6
 25 24  1  1
M  CHG  1  13   1
M  END
$$$$
