
     RDKit          3D

 26 28  0  0  0  0  0  0  0  0999 V2000
    5.0702   -7.8198    8.7074 O   0  0  0  0  0  0  0  0  0  0  0  0
    5.6236   -9.1017    8.1930 S   0  0  1  0  0  6  0  0  0  0  0  0
    5.5427  -10.3023    9.4709 C   0  0  0  0  0  0  0  0  0  0  0  0
    5.1563  -11.5973    9.1958 C   0  0  0  0  0  0  0  0  0  0  0  0
    5.0878  -12.5515   10.1893 C   0  0  0  0  0  0  0  0  0  0  0  0
    5.4011  -12.2601   11.5026 C   0  0  0  0  0  0  0  0  0  0  0  0
    5.3284  -13.2692   12.5520 C   0  0  0  0  0  0  0  0  0  0  0  0
    5.8057  -14.5667   12.3912 C   0  0  0  0  0  0  0  0  0  0  0  0
    5.7334  -15.5050   13.3796 C   0  0  0  0  0  0  0  0  0  0  0  0
    6.2248  -16.8794   13.2485 C   0  0  1  0  0  0  0  0  0  0  0  0
    5.2280  -17.7659   12.6353 C   0  0  0  0  0  0  0  0  0  0  0  0
    5.5435  -18.3201   11.3679 N   0  0  0  0  0  0  0  0  0  0  0  0
    4.0914  -18.0731   13.1747 N   0  0  0  0  0  4  0  0  0  0  0  0
    7.5512  -16.9151   12.5141 C   0  0  0  0  0  0  0  0  0  0  0  0
    8.2086  -16.7960   13.8977 C   0  0  0  0  0  0  0  0  0  0  0  0
    6.9499  -17.4483   14.4430 C   0  0  0  0  0  0  0  0  0  0  0  0
    5.1623  -15.1340   14.5753 C   0  0  0  0  0  0  0  0  0  0  0  0
    4.6662  -13.8544   14.8010 C   0  0  0  0  0  0  0  0  0  0  0  0
    3.9442  -13.3772   16.3060 Cl  0  0  0  0  0  0  0  0  0  0  0  0
    4.7646  -12.9428   13.7665 C   0  0  0  0  0  0  0  0  0  0  0  0
    5.7879  -10.9626   11.7761 C   0  0  0  0  0  0  0  0  0  0  0  0
    5.8584   -9.9977   10.7782 C   0  0  0  0  0  0  0  0  0  0  0  0
    4.6848   -9.5904    6.8264 N   0  0  0  0  0  0  0  0  0  0  0  0
    3.2765   -9.2806    7.0282 C   0  0  0  0  0  0  0  0  0  0  0  0
    2.5252   -9.6875    5.7827 C   0  0  0  0  0  0  0  0  0  0  0  0
    7.0269   -8.8697    7.7455 O   0  0  0  0  0  0  0  0  0  0  0  0
  1  2  2  0
  2  3  1  0
  2 23  1  6
  2 26  2  0
  3 22  2  0
  3  4  1  0
  4  5  2  0
  5  6  1  0
  6  7  1  0
  6 21  2  0
  7 20  1  0
  7  8  2  0
  8  9  1  0
 10  9  1  1
  9 17  2  0
 10 16  1  0
 10 11  1  0
 14 10  1  6
 11 12  1  0
 11 13  2  3
 15 14  1  6
 16 15  1  1
 17 18  1  0
 18 19  1  0
 18 20  2  0
 21 22  1  0
 24 23  1  6
 25 24  1  1
M  CHG  1  13   1
M  END
$$$$
