
     RDKit          3D

 26 28  0  0  0  0  0  0  0  0999 V2000
    7.9629   -9.4797   10.6300 O   0  0  0  0  0  0  0  0  0  0  0  0
    8.6795  -10.7015   11.0861 S   0  0  1  0  0  6  0  0  0  0  0  0
    7.7289  -12.1092   10.6441 C   0  0  0  0  0  0  0  0  0  0  0  0
    8.0321  -13.3524   11.1586 C   0  0  0  0  0  0  0  0  0  0  0  0
    7.2945  -14.4677   10.8204 C   0  0  0  0  0  0  0  0  0  0  0  0
    6.2208  -14.3963    9.9543 C   0  0  0  0  0  0  0  0  0  0  0  0
    5.4418  -15.5756    9.5974 C   0  0  0  0  0  0  0  0  0  0  0  0
    5.2285  -15.9741    8.2810 C   0  0  0  0  0  0  0  0  0  0  0  0
    4.4976  -17.0800    7.9564 C   0  0  0  0  0  0  0  0  0  0  0  0
    4.2517  -17.5314    6.5841 C   0  0  1  0  0  0  0  0  0  0  0  0
    2.8901  -17.2156    6.1347 C   0  0  0  0  0  0  0  0  0  0  0  0
    1.9009  -18.2184    6.3044 N   0  0  0  0  0  0  0  0  0  0  0  0
    2.5383  -16.0892    5.6011 N   0  0  0  0  0  4  0  0  0  0  0  0
    5.3064  -16.9924    5.6370 C   0  0  0  0  0  0  0  0  0  0  0  0
    6.0914  -18.2790    5.9356 C   0  0  0  0  0  0  0  0  0  0  0  0
    4.7445  -18.9141    6.2353 C   0  0  0  0  0  0  0  0  0  0  0  0
    3.9583  -17.8170    8.9857 C   0  0  0  0  0  0  0  0  0  0  0  0
    4.1336  -17.4735   10.3221 C   0  0  0  0  0  0  0  0  0  0  0  0
    3.4571  -18.3971   11.6273 Cl  0  0  0  0  0  0  0  0  0  0  0  0
    4.8825  -16.3443   10.5953 C   0  0  0  0  0  0  0  0  0  0  0  0
    5.9187  -13.1504    9.4402 C   0  0  0  0  0  0  0  0  0  0  0  0
    6.6592  -12.0238    9.7781 C   0  0  0  0  0  0  0  0  0  0  0  0
   10.2303  -10.7394   10.3237 N   0  0  0  0  0  0  0  0  0  0  0  0
   11.0931   -9.6926   10.8526 C   0  0  0  0  0  0  0  0  0  0  0  0
   12.4554   -9.8447   10.2184 C   0  0  0  0  0  0  0  0  0  0  0  0
    8.8787  -10.6145   12.5613 O   0  0  0  0  0  0  0  0  0  0  0  0
  1  2  2  0
  2  3  1  0
  2 23  1  6
  2 26  2  0
  3 22  2  0
  3  4  1  0
  4  5  2  0
  5  6  1  0
  6  7  1  0
  6 21  2  0
  7 20  1  0
  7  8  2  0
  8  9  1  0
 10  9  1  1
  9 17  2  0
 10 16  1  0
 10 11  1  0
 14 10  1  6
 11 12  1  0
 11 13  2  3
 15 14  1  6
 16 15  1  1
 17 18  1  0
 18 19  1  0
 18 20  2  0
 21 22  1  0
 24 23  1  6
 25 24  1  1
M  CHG  1  13   1
M  END
$$$$
