
     RDKit          3D

 26 28  0  0  0  0  0  0  0  0999 V2000
   14.6727   -3.0935    2.8133 O   0  0  0  0  0  0  0  0  0  0  0  0
   14.6405   -4.5740    2.6671 S   0  0  1  0  0  6  0  0  0  0  0  0
   13.8875   -4.9714    1.1322 C   0  0  0  0  0  0  0  0  0  0  0  0
   13.3227   -6.2127    0.9264 C   0  0  0  0  0  0  0  0  0  0  0  0
   12.7277   -6.5396   -0.2742 C   0  0  0  0  0  0  0  0  0  0  0  0
   12.6678   -5.6454   -1.3252 C   0  0  0  0  0  0  0  0  0  0  0  0
   12.0388   -5.9917   -2.5939 C   0  0  0  0  0  0  0  0  0  0  0  0
   11.2939   -5.0860   -3.3435 C   0  0  0  0  0  0  0  0  0  0  0  0
   10.7085   -5.4193   -4.5304 C   0  0  0  0  0  0  0  0  0  0  0  0
    9.9182   -4.4947   -5.3477 C   0  0  1  0  0  0  0  0  0  0  0  0
    8.5215   -4.4193   -4.9017 C   0  0  0  0  0  0  0  0  0  0  0  0
    7.7508   -5.6083   -4.9753 N   0  0  0  0  0  0  0  0  0  0  0  0
    7.9553   -3.3470   -4.4470 N   0  0  0  0  0  4  0  0  0  0  0  0
   10.5734   -3.1284   -5.4107 C   0  0  0  0  0  0  0  0  0  0  0  0
   11.2973   -3.6420   -6.6649 C   0  0  0  0  0  0  0  0  0  0  0  0
   10.1175   -4.5823   -6.8407 C   0  0  0  0  0  0  0  0  0  0  0  0
   10.8728   -6.7069   -4.9871 C   0  0  0  0  0  0  0  0  0  0  0  0
   11.6046   -7.6602   -4.2868 C   0  0  0  0  0  0  0  0  0  0  0  0
   11.8173   -9.2869   -4.8549 Cl  0  0  0  0  0  0  0  0  0  0  0  0
   12.1765   -7.2700   -3.0904 C   0  0  0  0  0  0  0  0  0  0  0  0
   13.2341   -4.4028   -1.1172 C   0  0  0  0  0  0  0  0  0  0  0  0
   13.8347   -4.0690    0.0909 C   0  0  0  0  0  0  0  0  0  0  0  0
   16.2646   -5.1625    2.7289 N   0  0  0  0  0  0  0  0  0  0  0  0
   16.2860   -6.5999    2.9594 C   0  0  0  0  0  0  0  0  0  0  0  0
   17.7286   -7.0355    3.0618 C   0  0  0  0  0  0  0  0  0  0  0  0
   13.8836   -5.1501    3.8154 O   0  0  0  0  0  0  0  0  0  0  0  0
  1  2  2  0
  2  3  1  0
  2 23  1  6
  2 26  2  0
  3 22  2  0
  3  4  1  0
  4  5  2  0
  5  6  1  0
  6  7  1  0
  6 21  2  0
  7 20  1  0
  7  8  2  0
  8  9  1  0
 10  9  1  1
  9 17  2  0
 10 16  1  0
 10 11  1  0
 14 10  1  6
 11 12  1  0
 11 13  2  3
 15 14  1  6
 16 15  1  1
 17 18  1  0
 18 19  1  0
 18 20  2  0
 21 22  1  0
 24 23  1  6
 25 24  1  1
M  CHG  1  13   1
M  END
$$$$
