
     RDKit          3D

 26 28  0  0  0  0  0  0  0  0999 V2000
    4.0561   -5.7683   -0.7870 O   0  0  0  0  0  0  0  0  0  0  0  0
    4.8514   -5.0128    0.2184 S   0  0  1  0  0  6  0  0  0  0  0  0
    6.4863   -4.8171   -0.3895 C   0  0  0  0  0  0  0  0  0  0  0  0
    7.5499   -4.6946    0.4799 C   0  0  0  0  0  0  0  0  0  0  0  0
    8.8401   -4.5400    0.0172 C   0  0  0  0  0  0  0  0  0  0  0  0
    9.1304   -4.5003   -1.3326 C   0  0  0  0  0  0  0  0  0  0  0  0
   10.4942   -4.3368   -1.8207 C   0  0  0  0  0  0  0  0  0  0  0  0
   10.8819   -4.6708   -3.1151 C   0  0  0  0  0  0  0  0  0  0  0  0
   12.1614   -4.5143   -3.5634 C   0  0  0  0  0  0  0  0  0  0  0  0
   12.6073   -4.8535   -4.9174 C   0  0  1  0  0  0  0  0  0  0  0  0
   12.0151   -3.9715   -5.9309 C   0  0  0  0  0  0  0  0  0  0  0  0
   12.4503   -2.6212   -5.9513 N   0  0  0  0  0  0  0  0  0  0  0  0
   11.1315   -4.3458   -6.8006 N   0  0  0  0  0  4  0  0  0  0  0  0
   14.1213   -4.8842   -4.9998 C   0  0  0  0  0  0  0  0  0  0  0  0
   14.0123   -6.3754   -4.6459 C   0  0  0  0  0  0  0  0  0  0  0  0
   12.6278   -6.3208   -5.2681 C   0  0  0  0  0  0  0  0  0  0  0  0
   13.0905   -4.0046   -2.6856 C   0  0  0  0  0  0  0  0  0  0  0  0
   12.7688   -3.6511   -1.3794 C   0  0  0  0  0  0  0  0  0  0  0  0
   13.9340   -3.0074   -0.2649 Cl  0  0  0  0  0  0  0  0  0  0  0  0
   11.4586   -3.8298   -0.9766 C   0  0  0  0  0  0  0  0  0  0  0  0
    8.0638   -4.6231   -2.2017 C   0  0  0  0  0  0  0  0  0  0  0  0
    6.7622   -4.7791   -1.7400 C   0  0  0  0  0  0  0  0  0  0  0  0
    4.0971   -3.4775    0.4669 N   0  0  0  0  0  0  0  0  0  0  0  0
    3.7213   -2.8735   -0.8035 C   0  0  0  0  0  0  0  0  0  0  0  0
    3.1050   -1.5250   -0.5158 C   0  0  0  0  0  0  0  0  0  0  0  0
    4.8306   -5.7651    1.5056 O   0  0  0  0  0  0  0  0  0  0  0  0
  1  2  2  0
  2  3  1  0
  2 23  1  1
  2 26  2  0
  3 22  2  0
  3  4  1  0
  4  5  2  0
  5  6  1  0
  6  7  1  0
  6 21  2  0
  7 20  1  0
  7  8  2  0
  8  9  1  0
 10  9  1  1
  9 17  2  0
 10 16  1  0
 10 11  1  0
 14 10  1  6
 11 12  1  0
 11 13  2  3
 15 14  1  6
 16 15  1  1
 17 18  1  0
 18 19  1  0
 18 20  2  0
 21 22  1  0
 24 23  1  6
 25 24  1  1
M  CHG  1  13   1
M  END
$$$$
