
     RDKit          3D

 26 28  0  0  0  0  0  0  0  0999 V2000
    9.5463   -5.7201    6.0571 O   0  0  0  0  0  0  0  0  0  0  0  0
   10.5754   -6.1703    7.0330 S   0  0  1  0  0  6  0  0  0  0  0  0
   10.0370   -7.6714    7.7662 C   0  0  0  0  0  0  0  0  0  0  0  0
   10.4077   -8.8876    7.2320 C   0  0  0  0  0  0  0  0  0  0  0  0
    9.9924  -10.0754    7.7968 C   0  0  0  0  0  0  0  0  0  0  0  0
    9.1886  -10.1067    8.9196 C   0  0  0  0  0  0  0  0  0  0  0  0
    8.7500  -11.3625    9.5159 C   0  0  0  0  0  0  0  0  0  0  0  0
    9.4029  -11.9615   10.5893 C   0  0  0  0  0  0  0  0  0  0  0  0
    8.9850  -13.1376   11.1412 C   0  0  0  0  0  0  0  0  0  0  0  0
    9.6448  -13.7982   12.2707 C   0  0  1  0  0  0  0  0  0  0  0  0
    9.2916  -13.1801   13.5547 C   0  0  0  0  0  0  0  0  0  0  0  0
   10.3463  -12.6102   14.3135 N   0  0  0  0  0  0  0  0  0  0  0  0
    8.0892  -13.1205   14.0321 N   0  0  0  0  0  4  0  0  0  0  0  0
    9.3758  -15.2906   12.2607 C   0  0  0  0  0  0  0  0  0  0  0  0
   10.6557  -15.4163   11.4200 C   0  0  0  0  0  0  0  0  0  0  0  0
   11.1056  -14.1306   12.0920 C   0  0  0  0  0  0  0  0  0  0  0  0
    7.8719  -13.7397   10.6007 C   0  0  0  0  0  0  0  0  0  0  0  0
    7.1740  -13.1941    9.5284 C   0  0  0  0  0  0  0  0  0  0  0  0
    5.7689  -13.9463    8.8399 Cl  0  0  0  0  0  0  0  0  0  0  0  0
    7.6398  -12.0015    9.0074 C   0  0  0  0  0  0  0  0  0  0  0  0
    8.8183   -8.8876    9.4531 C   0  0  0  0  0  0  0  0  0  0  0  0
    9.2345   -7.6883    8.8874 C   0  0  0  0  0  0  0  0  0  0  0  0
   12.0658   -6.3960    6.1870 N   0  0  0  0  0  0  0  0  0  0  0  0
   12.2061   -5.4199    5.1159 C   0  0  0  0  0  0  0  0  0  0  0  0
   13.6206   -5.5003    4.5925 C   0  0  0  0  0  0  0  0  0  0  0  0
   10.7666   -5.0990    8.0524 O   0  0  0  0  0  0  0  0  0  0  0  0
  1  2  2  0
  2  3  1  0
  2 23  1  6
  2 26  2  0
  3 22  2  0
  3  4  1  0
  4  5  2  0
  5  6  1  0
  6  7  1  0
  6 21  2  0
  7 20  1  0
  7  8  2  0
  8  9  1  0
 10  9  1  6
  9 17  2  0
 10 16  1  0
 10 11  1  0
 14 10  1  6
 11 12  1  0
 11 13  2  3
 15 14  1  6
 16 15  1  1
 17 18  1  0
 18 19  1  0
 18 20  2  0
 21 22  1  0
 24 23  1  6
 25 24  1  1
M  CHG  1  13   1
M  END
$$$$
