
     RDKit          3D

 26 28  0  0  0  0  0  0  0  0999 V2000
    8.2267  -13.1651   12.4883 O   0  0  0  0  0  0  0  0  0  0  0  0
    8.6070  -12.5112   11.2070 S   0  0  1  0  0  6  0  0  0  0  0  0
    8.9182  -13.7569   10.0103 C   0  0  0  0  0  0  0  0  0  0  0  0
    9.8513  -13.5580    9.0144 C   0  0  0  0  0  0  0  0  0  0  0  0
   10.1066  -14.5274    8.0670 C   0  0  0  0  0  0  0  0  0  0  0  0
    9.4444  -15.7396    8.0678 C   0  0  0  0  0  0  0  0  0  0  0  0
    9.7148  -16.7636    7.0662 C   0  0  0  0  0  0  0  0  0  0  0  0
   10.9989  -17.2042    6.7593 C   0  0  0  0  0  0  0  0  0  0  0  0
   11.2425  -18.1637    5.8198 C   0  0  0  0  0  0  0  0  0  0  0  0
   12.5785  -18.6535    5.4696 C   0  0  1  0  0  0  0  0  0  0  0  0
   13.2356  -19.3211    6.6002 C   0  0  0  0  0  0  0  0  0  0  0  0
   13.4747  -20.7146    6.4822 N   0  0  0  0  0  0  0  0  0  0  0  0
   13.6098  -18.7230    7.6862 N   0  0  0  0  0  4  0  0  0  0  0  0
   12.5289  -19.5336    4.2356 C   0  0  0  0  0  0  0  0  0  0  0  0
   12.7725  -18.2485    3.4294 C   0  0  0  0  0  0  0  0  0  0  0  0
   13.4512  -17.7114    4.6776 C   0  0  0  0  0  0  0  0  0  0  0  0
   10.1625  -18.7045    5.1606 C   0  0  0  0  0  0  0  0  0  0  0  0
    8.8545  -18.3088    5.4198 C   0  0  0  0  0  0  0  0  0  0  0  0
    7.4857  -18.9853    4.5934 Cl  0  0  0  0  0  0  0  0  0  0  0  0
    8.6638  -17.3337    6.3808 C   0  0  0  0  0  0  0  0  0  0  0  0
    8.5103  -15.9369    9.0661 C   0  0  0  0  0  0  0  0  0  0  0  0
    8.2498  -14.9629   10.0228 C   0  0  0  0  0  0  0  0  0  0  0  0
    7.3045  -11.4891   10.7100 N   0  0  0  0  0  0  0  0  0  0  0  0
    7.7174  -10.6179    9.6189 C   0  0  0  0  0  0  0  0  0  0  0  0
    6.5427   -9.7437    9.2487 C   0  0  0  0  0  0  0  0  0  0  0  0
    9.8109  -11.6637   11.4432 O   0  0  0  0  0  0  0  0  0  0  0  0
  1  2  2  0
  2  3  1  0
  2 23  1  6
  2 26  2  0
  3 22  2  0
  3  4  1  0
  4  5  2  0
  5  6  1  0
  6  7  1  0
  6 21  2  0
  7 20  1  0
  7  8  2  0
  8  9  1  0
 10  9  1  1
  9 17  2  0
 10 16  1  0
 10 11  1  0
 14 10  1  6
 11 12  1  0
 11 13  2  3
 15 14  1  6
 16 15  1  1
 17 18  1  0
 18 19  1  0
 18 20  2  0
 21 22  1  0
 24 23  1  6
 25 24  1  1
M  CHG  1  13   1
M  END
$$$$
