
     RDKit          3D

 26 28  0  0  0  0  0  0  0  0999 V2000
   11.7980  -11.9357   11.1385 O   0  0  0  0  0  0  0  0  0  0  0  0
   11.2545  -11.9360    9.7533 S   0  0  1  0  0  6  0  0  0  0  0  0
    9.7267  -12.8001    9.7487 C   0  0  0  0  0  0  0  0  0  0  0  0
    9.4084  -13.6604    8.7188 C   0  0  0  0  0  0  0  0  0  0  0  0
    8.2119  -14.3462    8.7012 C   0  0  0  0  0  0  0  0  0  0  0  0
    7.2771  -14.2069    9.7085 C   0  0  0  0  0  0  0  0  0  0  0  0
    6.0127  -14.9321    9.6892 C   0  0  0  0  0  0  0  0  0  0  0  0
    5.8604  -16.1752    9.0820 C   0  0  0  0  0  0  0  0  0  0  0  0
    4.6724  -16.8469    9.0689 C   0  0  0  0  0  0  0  0  0  0  0  0
    4.4730  -18.1560    8.4413 C   0  0  1  0  0  0  0  0  0  0  0  0
    4.4593  -19.2443    9.4266 C   0  0  0  0  0  0  0  0  0  0  0  0
    3.2298  -19.9230    9.6280 N   0  0  0  0  0  0  0  0  0  0  0  0
    5.4897  -19.6219   10.1143 N   0  0  0  0  0  4  0  0  0  0  0  0
    3.2322  -18.1577    7.5694 C   0  0  0  0  0  0  0  0  0  0  0  0
    4.1585  -17.7311    6.4202 C   0  0  0  0  0  0  0  0  0  0  0  0
    5.2691  -18.4265    7.1885 C   0  0  0  0  0  0  0  0  0  0  0  0
    3.5943  -16.2548    9.6858 C   0  0  0  0  0  0  0  0  0  0  0  0
    3.6791  -15.0150   10.3104 C   0  0  0  0  0  0  0  0  0  0  0  0
    2.3245  -14.2603   11.0911 Cl  0  0  0  0  0  0  0  0  0  0  0  0
    4.9057  -14.3777   10.2946 C   0  0  0  0  0  0  0  0  0  0  0  0
    7.5978  -13.3449   10.7391 C   0  0  0  0  0  0  0  0  0  0  0  0
    8.8023  -12.6518   10.7610 C   0  0  0  0  0  0  0  0  0  0  0  0
   11.0375  -10.2956    9.2534 N   0  0  0  0  0  0  0  0  0  0  0  0
   10.7932  -10.2191    7.8201 C   0  0  0  0  0  0  0  0  0  0  0  0
   10.5665   -8.7696    7.4613 C   0  0  0  0  0  0  0  0  0  0  0  0
   12.2516  -12.5788    8.8501 O   0  0  0  0  0  0  0  0  0  0  0  0
  1  2  2  0
  2  3  1  0
  2 23  1  6
  2 26  2  0
  3 22  2  0
  3  4  1  0
  4  5  2  0
  5  6  1  0
  6  7  1  0
  6 21  2  0
  7 20  1  0
  7  8  2  0
  8  9  1  0
 10  9  1  1
  9 17  2  0
 10 16  1  0
 10 11  1  0
 14 10  1  6
 11 12  1  0
 11 13  2  3
 15 14  1  6
 16 15  1  1
 17 18  1  0
 18 19  1  0
 18 20  2  0
 21 22  1  0
 24 23  1  6
 25 24  1  1
M  CHG  1  13   1
M  END
$$$$
