
     RDKit          3D

 26 28  0  0  0  0  0  0  0  0999 V2000
    4.9233  -15.1468   12.4302 O   0  0  0  0  0  0  0  0  0  0  0  0
    4.8869  -14.2949   11.2108 S   0  0  1  0  0  6  0  0  0  0  0  0
    5.8249  -15.0769    9.9500 C   0  0  0  0  0  0  0  0  0  0  0  0
    5.3903  -16.2540    9.3777 C   0  0  0  0  0  0  0  0  0  0  0  0
    6.1165  -16.8802    8.3863 C   0  0  0  0  0  0  0  0  0  0  0  0
    7.3090  -16.3629    7.9192 C   0  0  0  0  0  0  0  0  0  0  0  0
    8.0759  -17.0254    6.8714 C   0  0  0  0  0  0  0  0  0  0  0  0
    9.4601  -17.1644    6.9169 C   0  0  0  0  0  0  0  0  0  0  0  0
   10.1698  -17.7863    5.9309 C   0  0  0  0  0  0  0  0  0  0  0  0
   11.6257  -17.9525    5.9433 C   0  0  1  0  0  0  0  0  0  0  0  0
   12.3220  -16.7574    5.4508 C   0  0  0  0  0  0  0  0  0  0  0  0
   12.8520  -16.8099    4.1358 N   0  0  0  0  0  0  0  0  0  0  0  0
   12.4784  -15.6681    6.1336 N   0  0  0  0  0  4  0  0  0  0  0  0
   12.1134  -18.3740    7.3161 C   0  0  0  0  0  0  0  0  0  0  0  0
   11.9375  -19.8197    6.8266 C   0  0  0  0  0  0  0  0  0  0  0  0
   12.1542  -19.2684    5.4280 C   0  0  0  0  0  0  0  0  0  0  0  0
    9.4709  -18.2892    4.8576 C   0  0  0  0  0  0  0  0  0  0  0  0
    8.0882  -18.1838    4.7509 C   0  0  0  0  0  0  0  0  0  0  0  0
    7.1979  -18.8151    3.4006 Cl  0  0  0  0  0  0  0  0  0  0  0  0
    7.4182  -17.5446    5.7772 C   0  0  0  0  0  0  0  0  0  0  0  0
    7.7426  -15.1840    8.4936 C   0  0  0  0  0  0  0  0  0  0  0  0
    7.0141  -14.5495    9.4929 C   0  0  0  0  0  0  0  0  0  0  0  0
    3.2380  -14.1069   10.7272 N   0  0  0  0  0  0  0  0  0  0  0  0
    3.1264  -13.1631    9.6241 C   0  0  0  0  0  0  0  0  0  0  0  0
    1.6681  -13.0568    9.2457 C   0  0  0  0  0  0  0  0  0  0  0  0
    5.4370  -12.9515   11.5513 O   0  0  0  0  0  0  0  0  0  0  0  0
  1  2  2  0
  2  3  1  0
  2 23  1  6
  2 26  2  0
  3 22  2  0
  3  4  1  0
  4  5  2  0
  5  6  1  0
  6  7  1  0
  6 21  2  0
  7 20  1  0
  7  8  2  0
  8  9  1  0
 10  9  1  1
  9 17  2  0
 10 16  1  0
 10 11  1  0
 14 10  1  6
 11 12  1  0
 11 13  2  3
 15 14  1  6
 16 15  1  1
 17 18  1  0
 18 19  1  0
 18 20  2  0
 21 22  1  0
 24 23  1  6
 25 24  1  1
M  CHG  1  13   1
M  END
$$$$
