
     RDKit          3D

 26 28  0  0  0  0  0  0  0  0999 V2000
   16.9939   -4.3538   -6.7678 O   0  0  0  0  0  0  0  0  0  0  0  0
   15.9053   -3.3401   -6.7289 S   0  0  1  0  0  6  0  0  0  0  0  0
   14.5555   -3.9987   -5.8206 C   0  0  0  0  0  0  0  0  0  0  0  0
   14.6834   -5.1877   -5.1337 C   0  0  0  0  0  0  0  0  0  0  0  0
   13.6317   -5.7178   -4.4158 C   0  0  0  0  0  0  0  0  0  0  0  0
   12.4041   -5.0881   -4.3490 C   0  0  0  0  0  0  0  0  0  0  0  0
   11.2931   -5.6491   -3.5901 C   0  0  0  0  0  0  0  0  0  0  0  0
   10.8310   -5.0950   -2.3998 C   0  0  0  0  0  0  0  0  0  0  0  0
    9.7899   -5.6272   -1.6960 C   0  0  0  0  0  0  0  0  0  0  0  0
    9.2750   -5.0729   -0.4410 C   0  0  1  0  0  0  0  0  0  0  0  0
    9.9543   -5.6376    0.7318 C   0  0  0  0  0  0  0  0  0  0  0  0
   11.2676   -5.1763    1.0066 N   0  0  0  0  0  0  0  0  0  0  0  0
    9.4339   -6.5192    1.5249 N   0  0  0  0  0  4  0  0  0  0  0  0
    9.3231   -3.5572   -0.4555 C   0  0  0  0  0  0  0  0  0  0  0  0
    7.8998   -3.6154   -1.0313 C   0  0  0  0  0  0  0  0  0  0  0  0
    7.7752   -4.9549   -0.3262 C   0  0  0  0  0  0  0  0  0  0  0  0
    9.1863   -6.7566   -2.1996 C   0  0  0  0  0  0  0  0  0  0  0  0
    9.5992   -7.3597   -3.3829 C   0  0  0  0  0  0  0  0  0  0  0  0
    8.8440   -8.7847   -4.0259 Cl  0  0  0  0  0  0  0  0  0  0  0  0
   10.6581   -6.7800   -4.0562 C   0  0  0  0  0  0  0  0  0  0  0  0
   12.2780   -3.8974   -5.0376 C   0  0  0  0  0  0  0  0  0  0  0  0
   13.3350   -3.3595   -5.7623 C   0  0  0  0  0  0  0  0  0  0  0  0
   16.5189   -1.9112   -5.9742 N   0  0  0  0  0  0  0  0  0  0  0  0
   16.9391   -2.1871   -4.6077 C   0  0  0  0  0  0  0  0  0  0  0  0
   17.3375   -0.8782   -3.9679 C   0  0  0  0  0  0  0  0  0  0  0  0
   15.5146   -3.0063   -8.1287 O   0  0  0  0  0  0  0  0  0  0  0  0
  1  2  2  0
  2  3  1  0
  2 23  1  1
  2 26  2  0
  3 22  2  0
  3  4  1  0
  4  5  2  0
  5  6  1  0
  6  7  1  0
  6 21  2  0
  7 20  1  0
  7  8  2  0
  8  9  1  0
 10  9  1  6
  9 17  2  0
 10 16  1  0
 10 11  1  0
 14 10  1  6
 11 12  1  0
 11 13  2  3
 15 14  1  6
 16 15  1  1
 17 18  1  0
 18 19  1  0
 18 20  2  0
 21 22  1  0
 24 23  1  6
 25 24  1  1
M  CHG  1  13   1
M  END
$$$$
