
     RDKit          3D

 26 28  0  0  0  0  0  0  0  0999 V2000
    1.9394   -8.9514    8.3919 O   0  0  0  0  0  0  0  0  0  0  0  0
    3.4025   -8.7015    8.4972 S   0  0  1  0  0  6  0  0  0  0  0  0
    4.1973  -10.1980    8.9548 C   0  0  0  0  0  0  0  0  0  0  0  0
    3.4580  -11.3132    9.2894 C   0  0  0  0  0  0  0  0  0  0  0  0
    4.0682  -12.4960    9.6512 C   0  0  0  0  0  0  0  0  0  0  0  0
    5.4429  -12.6228    9.6965 C   0  0  0  0  0  0  0  0  0  0  0  0
    6.0870  -13.8733   10.0790 C   0  0  0  0  0  0  0  0  0  0  0  0
    5.7288  -14.5951   11.2139 C   0  0  0  0  0  0  0  0  0  0  0  0
    6.3376  -15.7652   11.5642 C   0  0  0  0  0  0  0  0  0  0  0  0
    5.9884  -16.5530   12.7494 C   0  0  1  0  0  0  0  0  0  0  0  0
    6.3652  -15.8731   13.9949 C   0  0  0  0  0  0  0  0  0  0  0  0
    5.3644  -15.1049   14.6442 N   0  0  0  0  0  0  0  0  0  0  0  0
    7.5411  -15.9323   14.5343 N   0  0  0  0  0  4  0  0  0  0  0  0
    4.5230  -16.9430   12.7310 C   0  0  0  0  0  0  0  0  0  0  0  0
    4.9723  -18.2166   11.9983 C   0  0  0  0  0  0  0  0  0  0  0  0
    6.3095  -18.0261   12.6931 C   0  0  0  0  0  0  0  0  0  0  0  0
    7.3434  -16.2334   10.7501 C   0  0  0  0  0  0  0  0  0  0  0  0
    7.7494  -15.5608    9.6023 C   0  0  0  0  0  0  0  0  0  0  0  0
    9.0172  -16.1437    8.5693 Cl  0  0  0  0  0  0  0  0  0  0  0  0
    7.0996  -14.3805    9.2936 C   0  0  0  0  0  0  0  0  0  0  0  0
    6.1816  -11.5048    9.3611 C   0  0  0  0  0  0  0  0  0  0  0  0
    5.5710  -10.3109    8.9959 C   0  0  0  0  0  0  0  0  0  0  0  0
    3.9713   -8.1443    6.9630 N   0  0  0  0  0  0  0  0  0  0  0  0
    3.4412   -8.9665    5.8846 C   0  0  0  0  0  0  0  0  0  0  0  0
    4.1349   -8.5632    4.6050 C   0  0  0  0  0  0  0  0  0  0  0  0
    3.6313   -7.6275    9.5060 O   0  0  0  0  0  0  0  0  0  0  0  0
  1  2  2  0
  2  3  1  0
  2 23  1  6
  2 26  2  0
  3 22  2  0
  3  4  1  0
  4  5  2  0
  5  6  1  0
  6  7  1  0
  6 21  2  0
  7 20  1  0
  7  8  2  0
  8  9  1  0
 10  9  1  6
  9 17  2  0
 10 16  1  0
 10 11  1  0
 14 10  1  6
 11 12  1  0
 11 13  2  3
 15 14  1  6
 16 15  1  1
 17 18  1  0
 18 19  1  0
 18 20  2  0
 21 22  1  0
 24 23  1  6
 25 24  1  1
M  CHG  1  13   1
M  END
$$$$
