
     RDKit          3D

 26 28  0  0  0  0  0  0  0  0999 V2000
    2.0453  -12.4951    7.1860 O   0  0  0  0  0  0  0  0  0  0  0  0
    3.5302  -12.5869    7.2168 S   0  0  1  0  0  6  0  0  0  0  0  0
    4.0282  -13.1127    8.8156 C   0  0  0  0  0  0  0  0  0  0  0  0
    4.7914  -12.2923    9.6197 C   0  0  0  0  0  0  0  0  0  0  0  0
    5.1905  -12.6916   10.8782 C   0  0  0  0  0  0  0  0  0  0  0  0
    4.8479  -13.9264   11.3938 C   0  0  0  0  0  0  0  0  0  0  0  0
    5.2701  -14.3476   12.7239 C   0  0  0  0  0  0  0  0  0  0  0  0
    6.1906  -15.3691   12.9397 C   0  0  0  0  0  0  0  0  0  0  0  0
    6.5801  -15.7567   14.1889 C   0  0  0  0  0  0  0  0  0  0  0  0
    7.5458  -16.8260   14.4562 C   0  0  1  0  0  0  0  0  0  0  0  0
    8.6584  -16.8172   13.4982 C   0  0  0  0  0  0  0  0  0  0  0  0
    9.8267  -16.1010   13.8658 N   0  0  0  0  0  0  0  0  0  0  0  0
    8.6415  -17.4188   12.3514 N   0  0  0  0  0  4  0  0  0  0  0  0
    8.0277  -16.7770   15.8933 C   0  0  0  0  0  0  0  0  0  0  0  0
    6.8638  -17.7278   16.2127 C   0  0  0  0  0  0  0  0  0  0  0  0
    6.9707  -18.1855   14.7684 C   0  0  0  0  0  0  0  0  0  0  0  0
    6.0293  -15.0994   15.2650 C   0  0  0  0  0  0  0  0  0  0  0  0
    5.1047  -14.0707   15.1186 C   0  0  0  0  0  0  0  0  0  0  0  0
    4.4045  -13.2356   16.4701 Cl  0  0  0  0  0  0  0  0  0  0  0  0
    4.7449  -13.7176   13.8315 C   0  0  0  0  0  0  0  0  0  0  0  0
    4.0835  -14.7465   10.5870 C   0  0  0  0  0  0  0  0  0  0  0  0
    3.6791  -14.3484    9.3183 C   0  0  0  0  0  0  0  0  0  0  0  0
    4.0306  -13.7194    6.0106 N   0  0  0  0  0  0  0  0  0  0  0  0
    3.4602  -13.3811    4.7144 C   0  0  0  0  0  0  0  0  0  0  0  0
    3.9719  -14.3799    3.7035 C   0  0  0  0  0  0  0  0  0  0  0  0
    4.0976  -11.2506    6.8767 O   0  0  0  0  0  0  0  0  0  0  0  0
  1  2  2  0
  2  3  1  0
  2 23  1  6
  2 26  2  0
  3 22  2  0
  3  4  1  0
  4  5  2  0
  5  6  1  0
  6  7  1  0
  6 21  2  0
  7 20  1  0
  7  8  2  0
  8  9  1  0
 10  9  1  6
  9 17  2  0
 10 16  1  0
 10 11  1  0
 14 10  1  6
 11 12  1  0
 11 13  2  3
 15 14  1  6
 16 15  1  1
 17 18  1  0
 18 19  1  0
 18 20  2  0
 21 22  1  0
 24 23  1  6
 25 24  1  1
M  CHG  1  13   1
M  END
$$$$
