
     RDKit          3D

 26 28  0  0  0  0  0  0  0  0999 V2000
  -12.7184  -22.7585    6.5417 O   0  0  0  0  0  0  0  0  0  0  0  0
  -12.5725  -22.0731    5.2290 S   0  0  1  0  0  6  0  0  0  0  0  0
  -11.6012  -20.6285    5.4535 C   0  0  0  0  0  0  0  0  0  0  0  0
  -11.3120  -19.8027    4.3874 C   0  0  0  0  0  0  0  0  0  0  0  0
  -10.5500  -18.6644    4.5482 C   0  0  0  0  0  0  0  0  0  0  0  0
  -10.0409  -18.2959    5.7782 C   0  0  0  0  0  0  0  0  0  0  0  0
   -9.2357  -17.0926    5.9473 C   0  0  0  0  0  0  0  0  0  0  0  0
   -7.8848  -17.1244    6.2809 C   0  0  0  0  0  0  0  0  0  0  0  0
   -7.1387  -15.9924    6.4372 C   0  0  0  0  0  0  0  0  0  0  0  0
   -5.7157  -15.9853    6.7871 C   0  0  1  0  0  0  0  0  0  0  0  0
   -5.4992  -16.1990    8.2234 C   0  0  0  0  0  0  0  0  0  0  0  0
   -6.2598  -17.2196    8.8503 N   0  0  0  0  0  0  0  0  0  0  0  0
   -4.6637  -15.5232    8.9461 N   0  0  0  0  0  4  0  0  0  0  0  0
   -4.9419  -16.9754    5.9381 C   0  0  0  0  0  0  0  0  0  0  0  0
   -4.7220  -15.8131    4.9576 C   0  0  0  0  0  0  0  0  0  0  0  0
   -4.8772  -14.8987    6.1604 C   0  0  0  0  0  0  0  0  0  0  0  0
   -7.7652  -14.7811    6.2534 C   0  0  0  0  0  0  0  0  0  0  0  0
   -9.1115  -14.6796    5.9192 C   0  0  0  0  0  0  0  0  0  0  0  0
   -9.9105  -13.1561    5.6853 Cl  0  0  0  0  0  0  0  0  0  0  0  0
   -9.8209  -15.8570    5.7731 C   0  0  0  0  0  0  0  0  0  0  0  0
  -10.3318  -19.1241    6.8447 C   0  0  0  0  0  0  0  0  0  0  0  0
  -11.0991  -20.2722    6.6874 C   0  0  0  0  0  0  0  0  0  0  0  0
  -11.8099  -23.1648    4.1268 N   0  0  0  0  0  0  0  0  0  0  0  0
  -10.6050  -23.7345    4.7129 C   0  0  0  0  0  0  0  0  0  0  0  0
   -9.9909  -24.6719    3.7003 C   0  0  0  0  0  0  0  0  0  0  0  0
  -13.9309  -21.7460    4.7084 O   0  0  0  0  0  0  0  0  0  0  0  0
  1  2  2  0
  2  3  1  0
  2 23  1  6
  2 26  2  0
  3 22  2  0
  3  4  1  0
  4  5  2  0
  5  6  1  0
  6  7  1  0
  6 21  2  0
  7 20  1  0
  7  8  2  0
  8  9  1  0
 10  9  1  1
  9 17  2  0
 10 16  1  0
 10 11  1  0
 14 10  1  6
 11 12  1  0
 11 13  2  3
 15 14  1  6
 16 15  1  1
 17 18  1  0
 18 19  1  0
 18 20  2  0
 21 22  1  0
 24 23  1  6
 25 24  1  1
M  CHG  1  13   1
M  END
$$$$
