
     RDKit          3D

 26 28  0  0  0  0  0  0  0  0999 V2000
    3.8546  -12.5652   14.7871 O   0  0  0  0  0  0  0  0  0  0  0  0
    4.1461  -14.0219   14.8730 S   0  0  1  0  0  6  0  0  0  0  0  0
    4.5759  -14.6047   13.2741 C   0  0  0  0  0  0  0  0  0  0  0  0
    4.2640  -13.8690   12.1501 C   0  0  0  0  0  0  0  0  0  0  0  0
    4.5950  -14.3140   10.8872 C   0  0  0  0  0  0  0  0  0  0  0  0
    5.2518  -15.5123   10.6856 C   0  0  0  0  0  0  0  0  0  0  0  0
    5.6012  -15.9819    9.3506 C   0  0  0  0  0  0  0  0  0  0  0  0
    6.9129  -16.0532    8.8906 C   0  0  0  0  0  0  0  0  0  0  0  0
    7.2306  -16.4943    7.6388 C   0  0  0  0  0  0  0  0  0  0  0  0
    8.5978  -16.5841    7.1191 C   0  0  1  0  0  0  0  0  0  0  0  0
    9.0360  -15.3279    6.4981 C   0  0  0  0  0  0  0  0  0  0  0  0
    8.0889  -14.2740    6.4256 N   0  0  0  0  0  0  0  0  0  0  0  0
   10.2219  -15.1226    6.0199 N   0  0  0  0  0  4  0  0  0  0  0  0
    9.5581  -17.0567    8.1936 C   0  0  0  0  0  0  0  0  0  0  0  0
    9.2597  -18.4795    7.6963 C   0  0  0  0  0  0  0  0  0  0  0  0
    8.9434  -17.8389    6.3560 C   0  0  0  0  0  0  0  0  0  0  0  0
    6.1989  -16.8793    6.8136 C   0  0  0  0  0  0  0  0  0  0  0  0
    4.8670  -16.8327    7.2115 C   0  0  0  0  0  0  0  0  0  0  0  0
    3.5588  -17.3163    6.1776 Cl  0  0  0  0  0  0  0  0  0  0  0  0
    4.6007  -16.3780    8.4895 C   0  0  0  0  0  0  0  0  0  0  0  0
    5.5633  -16.2477   11.8127 C   0  0  0  0  0  0  0  0  0  0  0  0
    5.2317  -15.8032   13.0871 C   0  0  0  0  0  0  0  0  0  0  0  0
    5.4495  -14.2514   15.9849 N   0  0  0  0  0  0  0  0  0  0  0  0
    6.5562  -13.3568   15.6772 C   0  0  0  0  0  0  0  0  0  0  0  0
    7.6513  -13.6032   16.6878 C   0  0  0  0  0  0  0  0  0  0  0  0
    2.9403  -14.7187   15.4057 O   0  0  0  0  0  0  0  0  0  0  0  0
  1  2  2  0
  2  3  1  0
  2 23  1  1
  2 26  2  0
  3 22  2  0
  3  4  1  0
  4  5  2  0
  5  6  1  0
  6  7  1  0
  6 21  2  0
  7 20  1  0
  7  8  2  0
  8  9  1  0
 10  9  1  1
  9 17  2  0
 10 16  1  0
 10 11  1  0
 14 10  1  6
 11 12  1  0
 11 13  2  3
 15 14  1  6
 16 15  1  1
 17 18  1  0
 18 19  1  0
 18 20  2  0
 21 22  1  0
 24 23  1  6
 25 24  1  1
M  CHG  1  13   1
M  END
$$$$
