
     RDKit          3D

 26 28  0  0  0  0  0  0  0  0999 V2000
    6.8934  -15.9743   15.2791 O   0  0  0  0  0  0  0  0  0  0  0  0
    6.3947  -14.6626   14.7841 S   0  0  1  0  0  6  0  0  0  0  0  0
    5.7961  -14.8698   13.1472 C   0  0  0  0  0  0  0  0  0  0  0  0
    5.5601  -13.7760   12.3409 C   0  0  0  0  0  0  0  0  0  0  0  0
    5.0897  -13.9228   11.0527 C   0  0  0  0  0  0  0  0  0  0  0  0
    4.8325  -15.1659   10.5081 C   0  0  0  0  0  0  0  0  0  0  0  0
    4.3352  -15.3202    9.1465 C   0  0  0  0  0  0  0  0  0  0  0  0
    4.5891  -16.4466    8.3693 C   0  0  0  0  0  0  0  0  0  0  0  0
    4.1193  -16.5824    7.0952 C   0  0  0  0  0  0  0  0  0  0  0  0
    4.3646  -17.7518    6.2468 C   0  0  1  0  0  0  0  0  0  0  0  0
    3.1980  -18.6409    6.1813 C   0  0  0  0  0  0  0  0  0  0  0  0
    2.7107  -18.9796    4.8926 N   0  0  0  0  0  0  0  0  0  0  0  0
    2.5938  -19.1329    7.2158 N   0  0  0  0  0  4  0  0  0  0  0  0
    4.8437  -17.3340    4.8699 C   0  0  0  0  0  0  0  0  0  0  0  0
    6.2660  -17.4324    5.4427 C   0  0  0  0  0  0  0  0  0  0  0  0
    5.6950  -18.4410    6.4243 C   0  0  0  0  0  0  0  0  0  0  0  0
    3.3667  -15.5538    6.5763 C   0  0  0  0  0  0  0  0  0  0  0  0
    3.0768  -14.4018    7.2996 C   0  0  0  0  0  0  0  0  0  0  0  0
    2.1283  -13.0990    6.6534 Cl  0  0  0  0  0  0  0  0  0  0  0  0
    3.5770  -14.3155    8.5853 C   0  0  0  0  0  0  0  0  0  0  0  0
    5.0694  -16.2601   11.3171 C   0  0  0  0  0  0  0  0  0  0  0  0
    5.5435  -16.1168   12.6158 C   0  0  0  0  0  0  0  0  0  0  0  0
    5.1348  -14.1261   15.8390 N   0  0  0  0  0  0  0  0  0  0  0  0
    4.8270  -12.7223   15.6057 C   0  0  0  0  0  0  0  0  0  0  0  0
    3.8055  -12.2910   16.6313 C   0  0  0  0  0  0  0  0  0  0  0  0
    7.5115  -13.6763   14.8397 O   0  0  0  0  0  0  0  0  0  0  0  0
  1  2  2  0
  2  3  1  0
  2 23  1  1
  2 26  2  0
  3 22  2  0
  3  4  1  0
  4  5  2  0
  5  6  1  0
  6  7  1  0
  6 21  2  0
  7 20  1  0
  7  8  2  0
  8  9  1  0
 10  9  1  1
  9 17  2  0
 10 16  1  0
 10 11  1  0
 14 10  1  6
 11 12  1  0
 11 13  2  3
 15 14  1  6
 16 15  1  1
 17 18  1  0
 18 19  1  0
 18 20  2  0
 21 22  1  0
 24 23  1  6
 25 24  1  1
M  CHG  1  13   1
M  END
$$$$
