
     RDKit          3D

  9  8  0  0  0  0  0  0  0  0999 V2000
   18.7256   36.4169   47.3008 O   0  0  0  0  0  0  0  0  0  0  0  0
   18.1015   36.1258   48.3530 C   0  0  0  0  0  0  0  0  0  0  0  0
   18.8107   35.4590   49.3508 O   0  0  0  0  0  1  0  0  0  0  0  0
   16.6658   36.4915   48.4967 C   0  0  0  0  0  0  0  0  0  0  0  0
   15.9035   35.2089   48.7248 C   0  0  0  0  0  0  0  0  0  0  0  0
   14.2794   35.2524   48.0291 S   0  0  1  0  0  6  0  0  0  0  0  0
   13.6435   36.5949   48.3285 O   0  0  0  0  0  0  0  0  0  0  0  0
   14.4318   35.1157   46.5344 O   0  0  0  0  0  0  0  0  0  0  0  0
   13.3316   33.9875   48.6050 O   0  0  0  0  0  1  0  0  0  0  0  0
  1  2  2  0
  2  3  1  0
  4  2  1  6
  5  4  1  6
  5  6  1  0
  6  7  2  0
  6  8  2  0
  6  9  1  1
M  CHG  2   3  -1   9  -1
M  END
$$$$
