
     RDKit          3D

  9  8  0  0  0  0  0  0  0  0999 V2000
   22.0802   25.5700   57.9728 O   0  0  0  0  0  0  0  0  0  0  0  0
   22.6355   24.7918   57.1559 C   0  0  0  0  0  0  0  0  0  0  0  0
   22.0967   23.5126   57.0272 O   0  0  0  0  0  1  0  0  0  0  0  0
   23.8174   25.2472   56.3738 C   0  0  0  0  0  0  0  0  0  0  0  0
   24.3836   24.0319   55.6805 C   0  0  0  0  0  0  0  0  0  0  0  0
   26.0117   24.3078   55.0504 S   0  0  1  0  0  6  0  0  0  0  0  0
   27.0046   24.2607   56.1941 O   0  0  0  0  0  0  0  0  0  0  0  0
   26.3189   23.1767   54.1007 O   0  0  0  0  0  0  0  0  0  0  0  0
   26.1084   25.7674   54.2196 O   0  0  0  0  0  1  0  0  0  0  0  0
  1  2  2  0
  2  3  1  0
  4  2  1  6
  5  4  1  6
  5  6  1  0
  6  7  2  0
  6  8  2  0
  6  9  1  6
M  CHG  2   3  -1   9  -1
M  END
$$$$
