
     RDKit          3D

  9  8  0  0  0  0  0  0  0  0999 V2000
   31.1263   22.6208   47.6293 O   0  0  0  0  0  0  0  0  0  0  0  0
   32.0591   23.3861   47.9838 C   0  0  0  0  0  0  0  0  0  0  0  0
   32.8879   23.8875   46.9814 O   0  0  0  0  0  1  0  0  0  0  0  0
   32.2444   23.7235   49.4217 C   0  0  0  0  0  0  0  0  0  0  0  0
   32.8769   22.5215   50.0800 C   0  0  0  0  0  0  0  0  0  0  0  0
   33.8414   22.9535   51.4967 S   0  0  1  0  0  6  0  0  0  0  0  0
   35.0816   22.0839   51.5406 O   0  0  0  0  0  0  0  0  0  0  0  0
   34.2678   24.3901   51.3235 O   0  0  0  0  0  0  0  0  0  0  0  0
   32.9468   22.8105   52.9141 O   0  0  0  0  0  1  0  0  0  0  0  0
  1  2  2  0
  2  3  1  0
  4  2  1  6
  5  4  1  6
  5  6  1  0
  6  7  2  0
  6  8  2  0
  6  9  1  1
M  CHG  2   3  -1   9  -1
M  END
$$$$
