
     RDKit          3D

  9  8  0  0  0  0  0  0  0  0999 V2000
   17.4360   22.7224   52.5034 O   0  0  0  0  0  0  0  0  0  0  0  0
   18.2878   23.6390   52.6277 C   0  0  0  0  0  0  0  0  0  0  0  0
   19.2533   23.7518   51.6285 O   0  0  0  0  0  1  0  0  0  0  0  0
   18.2407   24.5497   53.8043 C   0  0  0  0  0  0  0  0  0  0  0  0
   19.6172   24.5436   54.4236 C   0  0  0  0  0  0  0  0  0  0  0  0
   19.5729   24.2907   56.1723 S   0  0  1  0  0  6  0  0  0  0  0  0
   20.9886   24.2894   56.7127 O   0  0  0  0  0  0  0  0  0  0  0  0
   18.8308   25.4592   56.7721 O   0  0  0  0  0  0  0  0  0  0  0  0
   18.7694   22.8662   56.5656 O   0  0  0  0  0  1  0  0  0  0  0  0
  1  2  2  0
  2  3  1  0
  4  2  1  6
  5  4  1  6
  5  6  1  0
  6  7  2  0
  6  8  2  0
  6  9  1  6
M  CHG  2   3  -1   9  -1
M  END
$$$$
