
     RDKit          3D

  9  8  0  0  0  0  0  0  0  0999 V2000
   26.5452   25.4650   56.3595 O   0  0  0  0  0  0  0  0  0  0  0  0
   25.7889   24.4706   56.2164 C   0  0  0  0  0  0  0  0  0  0  0  0
   24.4238   24.6746   56.4118 O   0  0  0  0  0  1  0  0  0  0  0  0
   26.3581   23.1439   55.8533 C   0  0  0  0  0  0  0  0  0  0  0  0
   25.8540   22.8101   54.4703 C   0  0  0  0  0  0  0  0  0  0  0  0
   25.6213   21.0741   54.2341 S   0  0  1  0  0  6  0  0  0  0  0  0
   24.1739   20.8087   53.8725 O   0  0  0  0  0  0  0  0  0  0  0  0
   26.4901   20.6629   53.0713 O   0  0  0  0  0  0  0  0  0  0  0  0
   26.0777   20.2030   55.5989 O   0  0  0  0  0  1  0  0  0  0  0  0
  1  2  2  0
  2  3  1  0
  4  2  1  6
  5  4  1  6
  5  6  1  0
  6  7  2  0
  6  8  2  0
  6  9  1  1
M  CHG  2   3  -1   9  -1
M  END
$$$$
