
     RDKit          3D

  9  8  0  0  0  0  0  0  0  0999 V2000
   24.9223   24.8811   54.5731 O   0  0  0  0  0  0  0  0  0  0  0  0
   26.1165   25.1990   54.3406 C   0  0  0  0  0  0  0  0  0  0  0  0
   26.3339   26.2825   53.4908 O   0  0  0  0  0  1  0  0  0  0  0  0
   27.2298   24.4307   54.9621 C   0  0  0  0  0  0  0  0  0  0  0  0
   28.1031   23.9298   53.8375 C   0  0  0  0  0  0  0  0  0  0  0  0
   28.9864   22.4606   54.2678 S   0  0  1  0  0  6  0  0  0  0  0  0
   29.0199   21.5299   53.0725 O   0  0  0  0  0  0  0  0  0  0  0  0
   30.4002   22.8717   54.5964 O   0  0  0  0  0  0  0  0  0  0  0  0
   28.3054   21.7063   55.6083 O   0  0  0  0  0  1  0  0  0  0  0  0
  1  2  2  0
  2  3  1  0
  4  2  1  6
  5  4  1  6
  5  6  1  0
  6  7  2  0
  6  8  2  0
  6  9  1  1
M  CHG  2   3  -1   9  -1
M  END
$$$$
