
     RDKit          3D

  9  8  0  0  0  0  0  0  0  0999 V2000
   29.8801   23.3761   53.1961 O   0  0  0  0  0  0  0  0  0  0  0  0
   30.7489   23.1153   52.3252 C   0  0  0  0  0  0  0  0  0  0  0  0
   31.2047   21.7999   52.2534 O   0  0  0  0  0  1  0  0  0  0  0  0
   31.2499   24.1884   51.4234 C   0  0  0  0  0  0  0  0  0  0  0  0
   32.7059   23.8956   51.1540 C   0  0  0  0  0  0  0  0  0  0  0  0
   33.4697   25.1279   50.1430 S   0  0  1  0  0  6  0  0  0  0  0  0
   33.2003   26.4967   50.7347 O   0  0  0  0  0  0  0  0  0  0  0  0
   34.9562   24.8734   50.1781 O   0  0  0  0  0  0  0  0  0  0  0  0
   32.9315   25.0354   48.5519 O   0  0  0  0  0  1  0  0  0  0  0  0
  1  2  2  0
  2  3  1  0
  4  2  1  6
  5  4  1  6
  5  6  1  0
  6  7  2  0
  6  8  2  0
  6  9  1  6
M  CHG  2   3  -1   9  -1
M  END
$$$$
