
     RDKit          3D

  9  8  0  0  0  0  0  0  0  0999 V2000
   29.8757   21.7531   49.9747 O   0  0  0  0  0  0  0  0  0  0  0  0
   30.9694   22.3555   49.8253 C   0  0  0  0  0  0  0  0  0  0  0  0
   31.5189   22.3705   48.5442 O   0  0  0  0  0  1  0  0  0  0  0  0
   31.6250   23.0153   50.9874 C   0  0  0  0  0  0  0  0  0  0  0  0
   32.3207   24.2473   50.4618 C   0  0  0  0  0  0  0  0  0  0  0  0
   33.3580   25.0092   51.6732 S   0  0  1  0  0  6  0  0  0  0  0  0
   34.0306   26.2222   51.0631 O   0  0  0  0  0  0  0  0  0  0  0  0
   32.4641   25.4703   52.7976 O   0  0  0  0  0  0  0  0  0  0  0  0
   34.4918   23.9243   52.2792 O   0  0  0  0  0  1  0  0  0  0  0  0
  1  2  2  0
  2  3  1  0
  4  2  1  6
  5  4  1  6
  5  6  1  0
  6  7  2  0
  6  8  2  0
  6  9  1  1
M  CHG  2   3  -1   9  -1
M  END
$$$$
