
     RDKit          3D

  9  8  0  0  0  0  0  0  0  0999 V2000
   22.0345   25.9748   57.2229 O   0  0  0  0  0  0  0  0  0  0  0  0
   21.9650   24.8493   56.6665 C   0  0  0  0  0  0  0  0  0  0  0  0
   22.5239   23.7673   57.3449 O   0  0  0  0  0  1  0  0  0  0  0  0
   21.3068   24.7105   55.3386 C   0  0  0  0  0  0  0  0  0  0  0  0
   19.9239   24.1588   55.5860 C   0  0  0  0  0  0  0  0  0  0  0  0
   19.6865   22.5690   54.8509 S   0  0  1  0  0  6  0  0  0  0  0  0
   20.6460   21.5794   55.4804 O   0  0  0  0  0  0  0  0  0  0  0  0
   18.2758   22.1385   55.1677 O   0  0  0  0  0  0  0  0  0  0  0  0
   19.8829   22.6302   53.1814 O   0  0  0  0  0  1  0  0  0  0  0  0
  1  2  2  0
  2  3  1  0
  4  2  1  6
  5  4  1  6
  5  6  1  0
  6  7  2  0
  6  8  2  0
  6  9  1  6
M  CHG  2   3  -1   9  -1
M  END
$$$$
