
     RDKit          3D

  9  8  0  0  0  0  0  0  0  0999 V2000
   18.7107   34.9346   47.3536 O   0  0  0  0  0  0  0  0  0  0  0  0
   18.2552   35.4610   48.4008 C   0  0  0  0  0  0  0  0  0  0  0  0
   18.8900   35.1451   49.6011 O   0  0  0  0  0  1  0  0  0  0  0  0
   17.0856   36.3790   48.3290 C   0  0  0  0  0  0  0  0  0  0  0  0
   15.9591   35.7200   49.0873 C   0  0  0  0  0  0  0  0  0  0  0  0
   14.7708   34.9672   48.0172 S   0  0  1  0  0  6  0  0  0  0  0  0
   13.3907   35.1055   48.6276 O   0  0  0  0  0  0  0  0  0  0  0  0
   14.7988   35.7288   46.7153 O   0  0  0  0  0  0  0  0  0  0  0  0
   15.1471   33.3546   47.7213 O   0  0  0  0  0  1  0  0  0  0  0  0
  1  2  2  0
  2  3  1  0
  4  2  1  6
  5  4  1  6
  5  6  1  0
  6  7  2  0
  6  8  2  0
  6  9  1  6
M  CHG  2   3  -1   9  -1
M  END
$$$$
