
     RDKit          3D

  9  8  0  0  0  0  0  0  0  0999 V2000
   14.5979   35.5614   45.6899 O   0  0  0  0  0  0  0  0  0  0  0  0
   15.8262   35.8196   45.7678 C   0  0  0  0  0  0  0  0  0  0  0  0
   16.5663   35.7593   44.5880 O   0  0  0  0  0  1  0  0  0  0  0  0
   16.4349   36.1716   47.0798 C   0  0  0  0  0  0  0  0  0  0  0  0
   17.6436   35.2854   47.2584 C   0  0  0  0  0  0  0  0  0  0  0  0
   17.9894   34.9446   48.9579 S   0  0  1  0  0  6  0  0  0  0  0  0
   18.3800   36.2315   49.6560 O   0  0  0  0  0  0  0  0  0  0  0  0
   16.7134   34.4304   49.5771 O   0  0  0  0  0  0  0  0  0  0  0  0
   19.1896   33.7767   49.1171 O   0  0  0  0  0  1  0  0  0  0  0  0
  1  2  2  0
  2  3  1  0
  4  2  1  6
  5  4  1  6
  5  6  1  0
  6  7  2  0
  6  8  2  0
  6  9  1  6
M  CHG  2   3  -1   9  -1
M  END
$$$$
