
     RDKit          3D

  9  8  0  0  0  0  0  0  0  0999 V2000
   18.7352   33.1665   48.8688 O   0  0  0  0  0  0  0  0  0  0  0  0
   18.1059   33.8675   48.0358 C   0  0  0  0  0  0  0  0  0  0  0  0
   18.8518   34.7383   47.2429 O   0  0  0  0  0  1  0  0  0  0  0  0
   16.6261   33.7495   47.9249 C   0  0  0  0  0  0  0  0  0  0  0  0
   16.2903   33.7657   46.4535 C   0  0  0  0  0  0  0  0  0  0  0  0
   15.2206   32.4382   45.9875 S   0  0  1  0  0  6  0  0  0  0  0  0
   15.0603   32.4313   44.4807 O   0  0  0  0  0  0  0  0  0  0  0  0
   15.8958   31.1553   46.4047 O   0  0  0  0  0  0  0  0  0  0  0  0
   13.7297   32.5529   46.7580 O   0  0  0  0  0  1  0  0  0  0  0  0
  1  2  2  0
  2  3  1  0
  4  2  1  6
  5  4  1  6
  5  6  1  0
  6  7  2  0
  6  8  2  0
  6  9  1  1
M  CHG  2   3  -1   9  -1
M  END
$$$$
