
     RDKit          3D

  9  8  0  0  0  0  0  0  0  0999 V2000
   26.2157   22.6434   54.1247 O   0  0  0  0  0  0  0  0  0  0  0  0
   26.1212   23.3877   55.1339 C   0  0  0  0  0  0  0  0  0  0  0  0
   27.1190   24.3439   55.3164 O   0  0  0  0  0  1  0  0  0  0  0  0
   24.9793   23.2296   56.0757 C   0  0  0  0  0  0  0  0  0  0  0  0
   24.2527   24.5520   56.1155 C   0  0  0  0  0  0  0  0  0  0  0  0
   22.6704   24.4331   56.8941 S   0  0  1  0  0  6  0  0  0  0  0  0
   21.7859   23.5034   56.0882 O   0  0  0  0  0  0  0  0  0  0  0  0
   22.8899   23.8257   58.2574 O   0  0  0  0  0  0  0  0  0  0  0  0
   21.9597   25.9473   57.0726 O   0  0  0  0  0  1  0  0  0  0  0  0
  1  2  2  0
  2  3  1  0
  4  2  1  6
  5  4  1  6
  5  6  1  0
  6  7  2  0
  6  8  2  0
  6  9  1  1
M  CHG  2   3  -1   9  -1
M  END
$$$$
