
     RDKit          3D

  9  8  0  0  0  0  0  0  0  0999 V2000
   20.2908   35.0795   47.7236 O   0  0  0  0  0  0  0  0  0  0  0  0
   19.1613   34.5915   47.9830 C   0  0  0  0  0  0  0  0  0  0  0  0
   19.1336   33.3605   48.6366 O   0  0  0  0  0  1  0  0  0  0  0  0
   17.9236   35.3222   47.5955 C   0  0  0  0  0  0  0  0  0  0  0  0
   16.8599   34.2834   47.3355 C   0  0  0  0  0  0  0  0  0  0  0  0
   16.5007   34.0964   45.6151 S   0  0  1  0  0  6  0  0  0  0  0  0
   17.7665   34.3222   44.8132 O   0  0  0  0  0  0  0  0  0  0  0  0
   16.0479   32.6725   45.4073 O   0  0  0  0  0  0  0  0  0  0  0  0
   15.2761   35.1416   45.1274 O   0  0  0  0  0  1  0  0  0  0  0  0
  1  2  2  0
  2  3  1  0
  4  2  1  6
  5  4  1  6
  5  6  1  0
  6  7  2  0
  6  8  2  0
  6  9  1  6
M  CHG  2   3  -1   9  -1
M  END
$$$$
