
     RDKit          3D

  9  8  0  0  0  0  0  0  0  0999 V2000
   18.3403   37.1932   47.4085 O   0  0  0  0  0  0  0  0  0  0  0  0
   17.5442   36.2752   47.0851 C   0  0  0  0  0  0  0  0  0  0  0  0
   17.9307   35.4343   46.0425 O   0  0  0  0  0  1  0  0  0  0  0  0
   16.2505   36.1188   47.8046 C   0  0  0  0  0  0  0  0  0  0  0  0
   16.3000   34.7904   48.5195 C   0  0  0  0  0  0  0  0  0  0  0  0
   14.8203   33.8482   48.3029 S   0  0  1  0  0  6  0  0  0  0  0  0
   13.7019   34.4836   49.1038 O   0  0  0  0  0  0  0  0  0  0  0  0
   14.4609   33.9146   46.8392 O   0  0  0  0  0  0  0  0  0  0  0  0
   15.0473   32.2405   48.7428 O   0  0  0  0  0  1  0  0  0  0  0  0
  1  2  2  0
  2  3  1  0
  4  2  1  6
  5  4  1  6
  5  6  1  0
  6  7  2  0
  6  8  2  0
  6  9  1  1
M  CHG  2   3  -1   9  -1
M  END
$$$$
