
     RDKit          3D

  9  8  0  0  0  0  0  0  0  0999 V2000
   31.7961   21.2146   50.8662 O   0  0  0  0  0  0  0  0  0  0  0  0
   31.6277   22.4466   51.0536 C   0  0  0  0  0  0  0  0  0  0  0  0
   30.3224   22.8860   51.2692 O   0  0  0  0  0  1  0  0  0  0  0  0
   32.7938   23.3717   51.0397 C   0  0  0  0  0  0  0  0  0  0  0  0
   32.3603   24.6186   50.3079 C   0  0  0  0  0  0  0  0  0  0  0  0
   33.2840   24.8905   48.8257 S   0  0  1  0  0  6  0  0  0  0  0  0
   32.9270   23.8226   47.8117 O   0  0  0  0  0  0  0  0  0  0  0  0
   32.8630   26.2320   48.2789 O   0  0  0  0  0  0  0  0  0  0  0  0
   34.9383   24.9131   49.1297 O   0  0  0  0  0  1  0  0  0  0  0  0
  1  2  2  0
  2  3  1  0
  4  2  1  6
  5  4  1  6
  5  6  1  0
  6  7  2  0
  6  8  2  0
  6  9  1  1
M  CHG  2   3  -1   9  -1
M  END
$$$$
