
     RDKit          3D

  9  8  0  0  0  0  0  0  0  0999 V2000
   27.8974   23.0594   51.4971 O   0  0  0  0  0  0  0  0  0  0  0  0
   29.0633   22.6059   51.3691 C   0  0  0  0  0  0  0  0  0  0  0  0
   29.9080   22.6982   52.4743 O   0  0  0  0  0  1  0  0  0  0  0  0
   29.4936   22.0019   50.0785 C   0  0  0  0  0  0  0  0  0  0  0  0
   30.5580   22.9032   49.5015 C   0  0  0  0  0  0  0  0  0  0  0  0
   31.0415   22.4238   47.8705 S   0  0  1  0  0  6  0  0  0  0  0  0
   32.2393   23.2473   47.4423 O   0  0  0  0  0  0  0  0  0  0  0  0
   31.4539   20.9742   47.9367 O   0  0  0  0  0  0  0  0  0  0  0  0
   29.7698   22.5864   46.7814 O   0  0  0  0  0  1  0  0  0  0  0  0
  1  2  2  0
  2  3  1  0
  4  2  1  6
  5  4  1  6
  5  6  1  0
  6  7  2  0
  6  8  2  0
  6  9  1  6
M  CHG  2   3  -1   9  -1
M  END
$$$$
