
     RDKit          3D

  9  8  0  0  0  0  0  0  0  0999 V2000
   32.8436   24.6805   53.0783 O   0  0  0  0  0  0  0  0  0  0  0  0
   33.2877   25.1504   51.9997 C   0  0  0  0  0  0  0  0  0  0  0  0
   33.4689   26.5310   51.9328 O   0  0  0  0  0  1  0  0  0  0  0  0
   33.5974   24.2443   50.8601 C   0  0  0  0  0  0  0  0  0  0  0  0
   32.6658   24.6175   49.7327 C   0  0  0  0  0  0  0  0  0  0  0  0
   32.9286   23.6396   48.2840 S   0  0  1  0  0  6  0  0  0  0  0  0
   34.2346   24.0502   47.6344 O   0  0  0  0  0  0  0  0  0  0  0  0
   33.0453   22.2037   48.7316 O   0  0  0  0  0  0  0  0  0  0  0  0
   31.6428   23.7795   47.2084 O   0  0  0  0  0  1  0  0  0  0  0  0
  1  2  2  0
  2  3  1  0
  4  2  1  6
  5  4  1  6
  5  6  1  0
  6  7  2  0
  6  8  2  0
  6  9  1  6
M  CHG  2   3  -1   9  -1
M  END
$$$$
