
     RDKit          3D

  9  8  0  0  0  0  0  0  0  0999 V2000
   26.6227   25.5228   55.0951 O   0  0  0  0  0  0  0  0  0  0  0  0
   25.3668   25.5283   55.0334 C   0  0  0  0  0  0  0  0  0  0  0  0
   24.7912   25.6882   53.7738 O   0  0  0  0  0  1  0  0  0  0  0  0
   24.5561   25.3683   56.2715 C   0  0  0  0  0  0  0  0  0  0  0  0
   24.1056   23.9286   56.3222 C   0  0  0  0  0  0  0  0  0  0  0  0
   22.3989   23.7669   56.7520 S   0  0  1  0  0  6  0  0  0  0  0  0
   22.0959   24.6589   57.9388 O   0  0  0  0  0  0  0  0  0  0  0  0
   21.5949   24.2498   55.5704 O   0  0  0  0  0  0  0  0  0  0  0  0
   21.9972   22.1657   57.0753 O   0  0  0  0  0  1  0  0  0  0  0  0
  1  2  2  0
  2  3  1  0
  4  2  1  6
  5  4  1  6
  5  6  1  0
  6  7  2  0
  6  8  2  0
  6  9  1  1
M  CHG  2   3  -1   9  -1
M  END
$$$$
