
     RDKit          3D

  9  8  0  0  0  0  0  0  0  0999 V2000
   24.5503   22.5343   54.4201 O   0  0  0  0  0  0  0  0  0  0  0  0
   24.2282   23.5116   55.1430 C   0  0  0  0  0  0  0  0  0  0  0  0
   24.9269   24.7028   54.9526 O   0  0  0  0  0  1  0  0  0  0  0  0
   23.1419   23.3707   56.1509 C   0  0  0  0  0  0  0  0  0  0  0  0
   21.9620   24.1633   55.6430 C   0  0  0  0  0  0  0  0  0  0  0  0
   20.4611   23.7599   56.4847 S   0  0  1  0  0  6  0  0  0  0  0  0
   19.4744   24.8980   56.3197 O   0  0  0  0  0  0  0  0  0  0  0  0
   19.8935   22.5314   55.8181 O   0  0  0  0  0  0  0  0  0  0  0  0
   20.7402   23.4265   58.1098 O   0  0  0  0  0  1  0  0  0  0  0  0
  1  2  2  0
  2  3  1  0
  4  2  1  6
  5  4  1  6
  5  6  1  0
  6  7  2  0
  6  8  2  0
  6  9  1  1
M  CHG  2   3  -1   9  -1
M  END
$$$$
