
     RDKit          3D

  9  8  0  0  0  0  0  0  0  0999 V2000
   31.7236   27.2513   51.2863 O   0  0  0  0  0  0  0  0  0  0  0  0
   32.4838   26.4561   50.6771 C   0  0  0  0  0  0  0  0  0  0  0  0
   33.2661   26.9825   49.6504 O   0  0  0  0  0  1  0  0  0  0  0  0
   32.5240   25.0181   51.0600 C   0  0  0  0  0  0  0  0  0  0  0  0
   33.7118   24.4066   50.3576 C   0  0  0  0  0  0  0  0  0  0  0  0
   33.6714   22.6397   50.3705 S   0  0  1  0  0  6  0  0  0  0  0  0
   33.0262   22.1455   49.0915 O   0  0  0  0  0  0  0  0  0  0  0  0
   35.1020   22.1621   50.4025 O   0  0  0  0  0  0  0  0  0  0  0  0
   32.8641   22.0548   51.7254 O   0  0  0  0  0  1  0  0  0  0  0  0
  1  2  2  0
  2  3  1  0
  4  2  1  6
  5  4  1  6
  5  6  1  0
  6  7  2  0
  6  8  2  0
  6  9  1  1
M  CHG  2   3  -1   9  -1
M  END
$$$$
