
     RDKit          3D

  9  8  0  0  0  0  0  0  0  0999 V2000
   19.8982   34.1953   49.3440 O   0  0  0  0  0  0  0  0  0  0  0  0
   19.0620   34.9192   48.7456 C   0  0  0  0  0  0  0  0  0  0  0  0
   19.5404   35.7273   47.7153 O   0  0  0  0  0  1  0  0  0  0  0  0
   17.6280   34.8919   49.1441 C   0  0  0  0  0  0  0  0  0  0  0  0
   16.8577   35.6264   48.0739 C   0  0  0  0  0  0  0  0  0  0  0  0
   15.4803   34.6970   47.4713 S   0  0  1  0  0  6  0  0  0  0  0  0
   15.0180   35.2864   46.1541 O   0  0  0  0  0  0  0  0  0  0  0  0
   15.9666   33.2906   47.2240 O   0  0  0  0  0  0  0  0  0  0  0  0
   14.2284   34.6584   48.5942 O   0  0  0  0  0  1  0  0  0  0  0  0
  1  2  2  0
  2  3  1  0
  4  2  1  6
  5  4  1  6
  5  6  1  0
  6  7  2  0
  6  8  2  0
  6  9  1  1
M  CHG  2   3  -1   9  -1
M  END
$$$$
