
     RDKit          3D

  9  8  0  0  0  0  0  0  0  0999 V2000
   15.4992   36.4192   48.0790 O   0  0  0  0  0  0  0  0  0  0  0  0
   15.6039   35.3725   47.3899 C   0  0  0  0  0  0  0  0  0  0  0  0
   16.7653   35.2204   46.6342 O   0  0  0  0  0  1  0  0  0  0  0  0
   14.5156   34.3570   47.4019 C   0  0  0  0  0  0  0  0  0  0  0  0
   15.1235   33.0522   46.9478 C   0  0  0  0  0  0  0  0  0  0  0  0
   14.0841   31.6643   47.2906 S   0  0  1  0  0  6  0  0  0  0  0  0
   12.8090   32.1465   47.9523 O   0  0  0  0  0  0  0  0  0  0  0  0
   13.7299   31.0358   45.9657 O   0  0  0  0  0  0  0  0  0  0  0  0
   14.8743   30.5279   48.2466 O   0  0  0  0  0  1  0  0  0  0  0  0
  1  2  2  0
  2  3  1  0
  4  2  1  6
  5  4  1  6
  5  6  1  0
  6  7  2  0
  6  8  2  0
  6  9  1  1
M  CHG  2   3  -1   9  -1
M  END
$$$$
