
     RDKit          3D

  9  8  0  0  0  0  0  0  0  0999 V2000
   18.8303   36.6633   48.3899 O   0  0  0  0  0  0  0  0  0  0  0  0
   18.1223   35.6336   48.5311 C   0  0  0  0  0  0  0  0  0  0  0  0
   18.7179   34.5289   49.1378 O   0  0  0  0  0  1  0  0  0  0  0  0
   16.7104   35.6260   48.0595 C   0  0  0  0  0  0  0  0  0  0  0  0
   16.5872   34.5100   47.0508 C   0  0  0  0  0  0  0  0  0  0  0  0
   15.0627   34.5679   46.1583 S   0  0  1  0  0  6  0  0  0  0  0  0
   15.0801   35.7549   45.2166 O   0  0  0  0  0  0  0  0  0  0  0  0
   14.9793   33.3048   45.3377 O   0  0  0  0  0  0  0  0  0  0  0  0
   13.7443   34.6366   47.2007 O   0  0  0  0  0  1  0  0  0  0  0  0
  1  2  2  0
  2  3  1  0
  4  2  1  6
  5  4  1  6
  5  6  1  0
  6  7  2  0
  6  8  2  0
  6  9  1  1
M  CHG  2   3  -1   9  -1
M  END
$$$$
