
     RDKit          3D

  9  8  0  0  0  0  0  0  0  0999 V2000
   18.9001   36.7218   48.9818 O   0  0  0  0  0  0  0  0  0  0  0  0
   18.0922   35.7663   48.8577 C   0  0  0  0  0  0  0  0  0  0  0  0
   18.6239   34.5209   48.5265 O   0  0  0  0  0  1  0  0  0  0  0  0
   16.6345   35.9877   49.0625 C   0  0  0  0  0  0  0  0  0  0  0  0
   15.9272   34.7413   48.5888 C   0  0  0  0  0  0  0  0  0  0  0  0
   15.1253   34.9675   47.0301 S   0  0  1  0  0  6  0  0  0  0  0  0
   15.7292   34.0180   46.0152 O   0  0  0  0  0  0  0  0  0  0  0  0
   13.6728   34.6070   47.2204 O   0  0  0  0  0  0  0  0  0  0  0  0
   15.2340   36.5638   46.5107 O   0  0  0  0  0  1  0  0  0  0  0  0
  1  2  2  0
  2  3  1  0
  4  2  1  6
  5  4  1  6
  5  6  1  0
  6  7  2  0
  6  8  2  0
  6  9  1  6
M  CHG  2   3  -1   9  -1
M  END
$$$$
