
     RDKit          3D

  9  8  0  0  0  0  0  0  0  0999 V2000
   13.9539   33.0082   47.4281 O   0  0  0  0  0  0  0  0  0  0  0  0
   15.0426   33.3409   47.9621 C   0  0  0  0  0  0  0  0  0  0  0  0
   15.8723   32.3146   48.4111 O   0  0  0  0  0  1  0  0  0  0  0  0
   15.4021   34.7794   48.0947 C   0  0  0  0  0  0  0  0  0  0  0  0
   16.7460   34.9621   47.4325 C   0  0  0  0  0  0  0  0  0  0  0  0
   16.9618   36.5879   46.7736 S   0  0  1  0  0  6  0  0  0  0  0  0
   16.9808   36.5151   45.2602 O   0  0  0  0  0  0  0  0  0  0  0  0
   15.7665   37.4032   47.2004 O   0  0  0  0  0  0  0  0  0  0  0  0
   18.3614   37.3088   47.3663 O   0  0  0  0  0  1  0  0  0  0  0  0
  1  2  2  0
  2  3  1  0
  4  2  1  6
  5  4  1  6
  5  6  1  0
  6  7  2  0
  6  8  2  0
  6  9  1  1
M  CHG  2   3  -1   9  -1
M  END
$$$$
