
     RDKit          3D

 26 28  0  0  0  0  0  0  0  0999 V2000
   11.4599   42.3531   65.0986 O   0  0  0  0  0  0  0  0  0  0  0  0
   12.4745   42.6262   66.1527 S   0  0  1  0  0  6  0  0  0  0  0  0
   14.0562   42.6427   65.4183 C   0  0  0  0  0  0  0  0  0  0  0  0
   15.1847   42.3078   66.1525 C   0  0  0  0  0  0  0  0  0  0  0  0
   16.4482   42.3074   65.6190 C   0  0  0  0  0  0  0  0  0  0  0  0
   16.6339   42.6496   64.3016 C   0  0  0  0  0  0  0  0  0  0  0  0
   17.9938   42.6465   63.7365 C   0  0  0  0  0  0  0  0  0  0  0  0
   18.6982   41.4330   63.6708 C   0  0  0  0  0  0  0  0  0  0  0  0
   19.9505   41.3457   63.1651 C   0  0  0  0  0  0  0  0  0  0  0  0
   20.7056   40.0872   63.0930 C   0  0  1  0  0  0  0  0  0  0  0  0
   21.8828   40.0337   63.9915 C   0  0  0  0  0  0  0  0  0  0  0  0
   23.1015   40.6390   63.5771 N   0  0  0  0  0  0  0  0  0  0  0  0
   21.8233   39.4623   65.1189 N   0  0  0  0  0  4  0  0  0  0  0  0
   19.8424   38.8390   63.0605 C   0  0  0  0  0  0  0  0  0  0  0  0
   20.9803   38.2250   62.2243 C   0  0  0  0  0  0  0  0  0  0  0  0
   21.1531   39.6822   61.6987 C   0  0  0  0  0  0  0  0  0  0  0  0
   20.5330   42.5265   62.7000 C   0  0  0  0  0  0  0  0  0  0  0  0
   19.8442   43.7137   62.7639 C   0  0  0  0  0  0  0  0  0  0  0  0
   20.5890   45.1782   62.1778 Cl  0  0  0  0  0  0  0  0  0  0  0  0
   18.5685   43.8078   63.2783 C   0  0  0  0  0  0  0  0  0  0  0  0
   15.5335   42.9843   63.5555 C   0  0  0  0  0  0  0  0  0  0  0  0
   14.2667   42.9827   64.0981 C   0  0  0  0  0  0  0  0  0  0  0  0
   12.1349   44.0819   66.9915 N   0  0  0  0  0  0  0  0  0  0  0  0
   11.9455   45.2000   66.0843 C   0  0  0  0  0  0  0  0  0  0  0  0
   11.8232   46.5062   66.8213 C   0  0  0  0  0  0  0  0  0  0  0  0
   12.4533   41.4998   67.1585 O   0  0  0  0  0  0  0  0  0  0  0  0
  1  2  2  0
  2  3  1  0
  2 23  1  1
  2 26  2  0
  3 22  2  0
  3  4  1  0
  4  5  2  0
  5  6  1  0
  6  7  1  0
  6 21  2  0
  7 20  1  0
  7  8  2  0
  8  9  1  0
 10  9  1  6
  9 17  2  0
 10 16  1  0
 10 11  1  0
 14 10  1  6
 11 12  1  0
 11 13  2  3
 15 14  1  6
 16 15  1  1
 17 18  1  0
 18 19  1  0
 18 20  2  0
 21 22  1  0
 24 23  1  6
 25 24  1  1
M  CHG  1  13   1
M  END
$$$$
