
     RDKit          3D

 26 28  0  0  0  0  0  0  0  0999 V2000
   31.1887   34.2781   37.5184 O   0  0  0  0  0  0  0  0  0  0  0  0
   29.7657   33.9499   37.2313 S   0  0  1  0  0  6  0  0  0  0  0  0
   28.8482   35.4319   37.1763 C   0  0  0  0  0  0  0  0  0  0  0  0
   27.4741   35.4253   37.3673 C   0  0  0  0  0  0  0  0  0  0  0  0
   26.7108   36.5642   37.3320 C   0  0  0  0  0  0  0  0  0  0  0  0
   27.3072   37.7796   37.0991 C   0  0  0  0  0  0  0  0  0  0  0  0
   26.4807   38.9978   37.0629 C   0  0  0  0  0  0  0  0  0  0  0  0
   25.2357   38.9536   36.4137 C   0  0  0  0  0  0  0  0  0  0  0  0
   24.4171   40.0285   36.3372 C   0  0  0  0  0  0  0  0  0  0  0  0
   23.1143   40.0037   35.6580 C   0  0  1  0  0  0  0  0  0  0  0  0
   21.9520   40.1148   36.5706 C   0  0  0  0  0  0  0  0  0  0  0  0
   21.5604   38.9831   37.3383 N   0  0  0  0  0  0  0  0  0  0  0  0
   21.3044   41.1962   36.6808 N   0  0  0  0  0  4  0  0  0  0  0  0
   23.0478   40.8479   34.3982 C   0  0  0  0  0  0  0  0  0  0  0  0
   22.0260   39.8070   33.9045 C   0  0  0  0  0  0  0  0  0  0  0  0
   22.8869   38.8132   34.7418 C   0  0  0  0  0  0  0  0  0  0  0  0
   24.8588   41.2092   36.9379 C   0  0  0  0  0  0  0  0  0  0  0  0
   26.0765   41.2528   37.5731 C   0  0  0  0  0  0  0  0  0  0  0  0
   26.6108   42.7372   38.3173 Cl  0  0  0  0  0  0  0  0  0  0  0  0
   26.9140   40.1606   37.6535 C   0  0  0  0  0  0  0  0  0  0  0  0
   28.6644   37.8117   36.9075 C   0  0  0  0  0  0  0  0  0  0  0  0
   29.4253   36.6632   36.9442 C   0  0  0  0  0  0  0  0  0  0  0  0
   29.6085   33.0372   35.7890 N   0  0  0  0  0  0  0  0  0  0  0  0
   30.5135   33.5004   34.7520 C   0  0  0  0  0  0  0  0  0  0  0  0
   29.8118   33.6759   33.4324 C   0  0  0  0  0  0  0  0  0  0  0  0
   29.2152   33.1177   38.3650 O   0  0  0  0  0  0  0  0  0  0  0  0
  1  2  2  0
  2  3  1  0
  2 23  1  6
  2 26  2  0
  3 22  2  0
  3  4  1  0
  4  5  2  0
  5  6  1  0
  6  7  1  0
  6 21  2  0
  7 20  1  0
  7  8  2  0
  8  9  1  0
 10  9  1  1
  9 17  2  0
 10 16  1  0
 10 11  1  0
 14 10  1  6
 11 12  1  0
 11 13  2  3
 15 14  1  6
 16 15  1  1
 17 18  1  0
 18 19  1  0
 18 20  2  0
 21 22  1  0
 24 23  1  6
 25 24  1  1
M  CHG  1  13   1
M  END
$$$$
