
     RDKit          3D

 26 28  0  0  0  0  0  0  0  0999 V2000
   22.4355   48.2283   49.2612 O   0  0  0  0  0  0  0  0  0  0  0  0
   23.1920   49.4709   48.9470 S   0  0  1  0  0  6  0  0  0  0  0  0
   24.8245   49.0390   48.5114 C   0  0  0  0  0  0  0  0  0  0  0  0
   25.0723   48.0198   47.6034 C   0  0  0  0  0  0  0  0  0  0  0  0
   26.3378   47.6442   47.2310 C   0  0  0  0  0  0  0  0  0  0  0  0
   27.4269   48.2889   47.7652 C   0  0  0  0  0  0  0  0  0  0  0  0
   28.7823   47.8797   47.3603 C   0  0  0  0  0  0  0  0  0  0  0  0
   29.7560   48.8706   47.1518 C   0  0  0  0  0  0  0  0  0  0  0  0
   31.0237   48.5772   46.7798 C   0  0  0  0  0  0  0  0  0  0  0  0
   32.0545   49.5993   46.5515 C   0  0  1  0  0  0  0  0  0  0  0  0
   31.6615   50.6522   45.5857 C   0  0  0  0  0  0  0  0  0  0  0  0
   31.1270   51.8774   46.0723 N   0  0  0  0  0  0  0  0  0  0  0  0
   31.7943   50.4826   44.3388 N   0  0  0  0  0  4  0  0  0  0  0  0
   32.7463   50.0847   47.8124 C   0  0  0  0  0  0  0  0  0  0  0  0
   33.9725   50.3014   46.9064 C   0  0  0  0  0  0  0  0  0  0  0  0
   33.4156   49.0627   46.1417 C   0  0  0  0  0  0  0  0  0  0  0  0
   31.3403   47.2283   46.6062 C   0  0  0  0  0  0  0  0  0  0  0  0
   30.3882   46.2588   46.8102 C   0  0  0  0  0  0  0  0  0  0  0  0
   30.8031   44.5792   46.5881 Cl  0  0  0  0  0  0  0  0  0  0  0  0
   29.0955   46.5526   47.1889 C   0  0  0  0  0  0  0  0  0  0  0  0
   27.2073   49.2999   48.6649 C   0  0  0  0  0  0  0  0  0  0  0  0
   25.9329   49.6720   49.0346 C   0  0  0  0  0  0  0  0  0  0  0  0
   22.4166   50.3879   47.7239 N   0  0  0  0  0  0  0  0  0  0  0  0
   22.7792   51.7928   47.7864 C   0  0  0  0  0  0  0  0  0  0  0  0
   21.5995   52.6890   47.5226 C   0  0  0  0  0  0  0  0  0  0  0  0
   23.2657   50.3282   50.1881 O   0  0  0  0  0  0  0  0  0  0  0  0
  1  2  2  0
  2  3  1  0
  2 23  1  6
  2 26  2  0
  3 22  2  0
  3  4  1  0
  4  5  2  0
  5  6  1  0
  6  7  1  0
  6 21  2  0
  7 20  1  0
  7  8  2  0
  8  9  1  0
 10  9  1  1
  9 17  2  0
 10 16  1  0
 10 11  1  0
 14 10  1  6
 11 12  1  0
 11 13  2  3
 15 14  1  6
 16 15  1  1
 17 18  1  0
 18 19  1  0
 18 20  2  0
 21 22  1  0
 24 23  1  6
 25 24  1  1
M  CHG  1  13   1
M  END
$$$$
