
     RDKit          3D

 26 28  0  0  0  0  0  0  0  0999 V2000
   21.2834   41.8707   72.5207 O   0  0  0  0  0  0  0  0  0  0  0  0
   20.7494   41.2939   71.2569 S   0  0  1  0  0  6  0  0  0  0  0  0
   22.0841   40.9552   70.1867 C   0  0  0  0  0  0  0  0  0  0  0  0
   22.0155   41.2795   68.8396 C   0  0  0  0  0  0  0  0  0  0  0  0
   23.0383   41.0319   67.9600 C   0  0  0  0  0  0  0  0  0  0  0  0
   24.1938   40.4373   68.4055 C   0  0  0  0  0  0  0  0  0  0  0  0
   25.2873   40.1749   67.4548 C   0  0  0  0  0  0  0  0  0  0  0  0
   26.6137   40.3610   67.8785 C   0  0  0  0  0  0  0  0  0  0  0  0
   27.6738   40.1407   67.0668 C   0  0  0  0  0  0  0  0  0  0  0  0
   29.0677   40.3351   67.4894 C   0  0  1  0  0  0  0  0  0  0  0  0
   30.0662   39.6977   66.5991 C   0  0  0  0  0  0  0  0  0  0  0  0
   30.4473   38.3479   66.8361 N   0  0  0  0  0  0  0  0  0  0  0  0
   30.5832   40.3302   65.6328 N   0  0  0  0  0  4  0  0  0  0  0  0
   29.3940   41.7459   67.9445 C   0  0  0  0  0  0  0  0  0  0  0  0
   30.4190   41.0743   68.8770 C   0  0  0  0  0  0  0  0  0  0  0  0
   29.3722   39.9201   68.9190 C   0  0  0  0  0  0  0  0  0  0  0  0
   27.4015   39.7127   65.7657 C   0  0  0  0  0  0  0  0  0  0  0  0
   26.1043   39.5304   65.3510 C   0  0  0  0  0  0  0  0  0  0  0  0
   25.7845   38.9953   63.7218 Cl  0  0  0  0  0  0  0  0  0  0  0  0
   25.0210   39.7536   66.1740 C   0  0  0  0  0  0  0  0  0  0  0  0
   24.2853   40.1076   69.7332 C   0  0  0  0  0  0  0  0  0  0  0  0
   23.2535   40.3593   70.6114 C   0  0  0  0  0  0  0  0  0  0  0  0
   19.7898   39.9052   71.5546 N   0  0  0  0  0  0  0  0  0  0  0  0
   19.0350   39.5048   70.3804 C   0  0  0  0  0  0  0  0  0  0  0  0
   17.6657   38.9950   70.7404 C   0  0  0  0  0  0  0  0  0  0  0  0
   19.8743   42.3214   70.5792 O   0  0  0  0  0  0  0  0  0  0  0  0
  1  2  2  0
  2  3  1  0
  2 23  1  1
  2 26  2  0
  3 22  2  0
  3  4  1  0
  4  5  2  0
  5  6  1  0
  6  7  1  0
  6 21  2  0
  7 20  1  0
  7  8  2  0
  8  9  1  0
 10  9  1  6
  9 17  2  0
 10 16  1  0
 10 11  1  0
 14 10  1  6
 11 12  1  0
 11 13  2  3
 15 14  1  6
 16 15  1  1
 17 18  1  0
 18 19  1  0
 18 20  2  0
 21 22  1  0
 24 23  1  6
 25 24  1  1
M  CHG  1  13   1
M  END
$$$$
