
     RDKit          3D

 26 28  0  0  0  0  0  0  0  0999 V2000
   21.2747   41.6263   70.0869 O   0  0  0  0  0  0  0  0  0  0  0  0
   21.6969   40.2575   70.4909 S   0  0  1  0  0  6  0  0  0  0  0  0
   23.1880   39.8666   69.6755 C   0  0  0  0  0  0  0  0  0  0  0  0
   23.9549   38.7823   70.0766 C   0  0  0  0  0  0  0  0  0  0  0  0
   25.1340   38.4367   69.4671 C   0  0  0  0  0  0  0  0  0  0  0  0
   25.6002   39.1798   68.4100 C   0  0  0  0  0  0  0  0  0  0  0  0
   26.8671   38.8022   67.7611 C   0  0  0  0  0  0  0  0  0  0  0  0
   27.8484   39.7879   67.5642 C   0  0  0  0  0  0  0  0  0  0  0  0
   29.0384   39.5220   66.9770 C   0  0  0  0  0  0  0  0  0  0  0  0
   30.0749   40.5401   66.7572 C   0  0  1  0  0  0  0  0  0  0  0  0
   30.8408   40.8988   67.9741 C   0  0  0  0  0  0  0  0  0  0  0  0
   31.4108   39.8643   68.7667 N   0  0  0  0  0  0  0  0  0  0  0  0
   30.9984   42.1060   68.3190 N   0  0  0  0  0  4  0  0  0  0  0  0
   30.8953   40.3375   65.4963 C   0  0  0  0  0  0  0  0  0  0  0  0
   31.0165   41.8725   65.4782 C   0  0  0  0  0  0  0  0  0  0  0  0
   29.5902   41.8240   66.1051 C   0  0  0  0  0  0  0  0  0  0  0  0
   29.2650   38.2074   66.5642 C   0  0  0  0  0  0  0  0  0  0  0  0
   28.3054   37.2429   66.7568 C   0  0  0  0  0  0  0  0  0  0  0  0
   28.6073   35.6064   66.2340 Cl  0  0  0  0  0  0  0  0  0  0  0  0
   27.0917   37.5089   67.3542 C   0  0  0  0  0  0  0  0  0  0  0  0
   24.8596   40.2564   67.9952 C   0  0  0  0  0  0  0  0  0  0  0  0
   23.6756   40.5979   68.6123 C   0  0  0  0  0  0  0  0  0  0  0  0
   21.8343   40.1178   72.1938 N   0  0  0  0  0  0  0  0  0  0  0  0
   22.6129   41.2017   72.7664 C   0  0  0  0  0  0  0  0  0  0  0  0
   22.9629   40.9411   74.2066 C   0  0  0  0  0  0  0  0  0  0  0  0
   20.6548   39.2661   70.0304 O   0  0  0  0  0  0  0  0  0  0  0  0
  1  2  2  0
  2  3  1  0
  2 23  1  1
  2 26  2  0
  3 22  2  0
  3  4  1  0
  4  5  2  0
  5  6  1  0
  6  7  1  0
  6 21  2  0
  7 20  1  0
  7  8  2  0
  8  9  1  0
 10  9  1  1
  9 17  2  0
 10 16  1  0
 10 11  1  0
 14 10  1  6
 11 12  1  0
 11 13  2  3
 15 14  1  6
 16 15  1  1
 17 18  1  0
 18 19  1  0
 18 20  2  0
 21 22  1  0
 24 23  1  6
 25 24  1  1
M  CHG  1  13   1
M  END
$$$$
