
     RDKit          3D

 26 28  0  0  0  0  0  0  0  0999 V2000
   29.8930   37.5181   63.7458 O   0  0  0  0  0  0  0  0  0  0  0  0
   29.6140   38.9786   63.8104 S   0  0  1  0  0  6  0  0  0  0  0  0
   28.5597   39.2891   65.1645 C   0  0  0  0  0  0  0  0  0  0  0  0
   28.9285   38.9244   66.4512 C   0  0  0  0  0  0  0  0  0  0  0  0
   28.1330   39.1469   67.5462 C   0  0  0  0  0  0  0  0  0  0  0  0
   26.9116   39.7563   67.3910 C   0  0  0  0  0  0  0  0  0  0  0  0
   26.0636   39.9916   68.5717 C   0  0  0  0  0  0  0  0  0  0  0  0
   26.6600   40.4674   69.7512 C   0  0  0  0  0  0  0  0  0  0  0  0
   25.9508   40.7097   70.8780 C   0  0  0  0  0  0  0  0  0  0  0  0
   26.5570   41.2019   72.1227 C   0  0  1  0  0  0  0  0  0  0  0  0
   27.0240   40.1315   73.0348 C   0  0  0  0  0  0  0  0  0  0  0  0
   28.4175   39.8658   73.1389 N   0  0  0  0  0  0  0  0  0  0  0  0
   26.2076   39.4523   73.7229 N   0  0  0  0  0  4  0  0  0  0  0  0
   27.5055   42.3726   71.9380 C   0  0  0  0  0  0  0  0  0  0  0  0
   27.0563   42.7977   73.3482 C   0  0  0  0  0  0  0  0  0  0  0  0
   25.6966   42.1657   72.9223 C   0  0  0  0  0  0  0  0  0  0  0  0
   24.5765   40.4667   70.8298 C   0  0  0  0  0  0  0  0  0  0  0  0
   23.9927   40.0015   69.6762 C   0  0  0  0  0  0  0  0  0  0  0  0
   22.2744   39.7038   69.6359 Cl  0  0  0  0  0  0  0  0  0  0  0  0
   24.7109   39.7529   68.5260 C   0  0  0  0  0  0  0  0  0  0  0  0
   26.5252   40.1260   66.1286 C   0  0  0  0  0  0  0  0  0  0  0  0
   27.3296   39.8993   65.0328 C   0  0  0  0  0  0  0  0  0  0  0  0
   31.0614   39.8931   63.8938 N   0  0  0  0  0  0  0  0  0  0  0  0
   31.2287   40.7517   62.7346 C   0  0  0  0  0  0  0  0  0  0  0  0
   32.4410   41.6342   62.8604 C   0  0  0  0  0  0  0  0  0  0  0  0
   28.8785   39.3941   62.5585 O   0  0  0  0  0  0  0  0  0  0  0  0
  1  2  2  0
  2  3  1  0
  2 23  1  1
  2 26  2  0
  3 22  2  0
  3  4  1  0
  4  5  2  0
  5  6  1  0
  6  7  1  0
  6 21  2  0
  7 20  1  0
  7  8  2  0
  8  9  1  0
 10  9  1  6
  9 17  2  0
 10 16  1  0
 10 11  1  0
 14 10  1  6
 11 12  1  0
 11 13  2  3
 15 14  1  6
 16 15  1  1
 17 18  1  0
 18 19  1  0
 18 20  2  0
 21 22  1  0
 24 23  1  6
 25 24  1  1
M  CHG  1  13   1
M  END
$$$$
