
     RDKit          3D

 26 28  0  0  0  0  0  0  0  0999 V2000
   33.8308   50.6700   50.4279 O   0  0  0  0  0  0  0  0  0  0  0  0
   32.8099   51.4980   49.7298 S   0  0  1  0  0  6  0  0  0  0  0  0
   31.9086   50.4771   48.6406 C   0  0  0  0  0  0  0  0  0  0  0  0
   31.7925   50.7990   47.2961 C   0  0  0  0  0  0  0  0  0  0  0  0
   31.0939   50.0282   46.4024 C   0  0  0  0  0  0  0  0  0  0  0  0
   30.4714   48.8806   46.8301 C   0  0  0  0  0  0  0  0  0  0  0  0
   29.7233   48.0585   45.8642 C   0  0  0  0  0  0  0  0  0  0  0  0
   29.0762   48.6933   44.7911 C   0  0  0  0  0  0  0  0  0  0  0  0
   28.3698   48.0097   43.8610 C   0  0  0  0  0  0  0  0  0  0  0  0
   27.6815   48.6558   42.7349 C   0  0  1  0  0  0  0  0  0  0  0  0
   26.2036   48.5643   42.7940 C   0  0  0  0  0  0  0  0  0  0  0  0
   25.5412   47.5373   42.0662 N   0  0  0  0  0  0  0  0  0  0  0  0
   25.5219   49.3800   43.4803 N   0  0  0  0  0  4  0  0  0  0  0  0
   28.2444   50.0122   42.3509 C   0  0  0  0  0  0  0  0  0  0  0  0
   27.7888   49.6580   40.9233 C   0  0  0  0  0  0  0  0  0  0  0  0
   28.1311   48.2004   41.3568 C   0  0  0  0  0  0  0  0  0  0  0  0
   28.3034   46.6223   44.0047 C   0  0  0  0  0  0  0  0  0  0  0  0
   28.9364   46.0009   45.0542 C   0  0  0  0  0  0  0  0  0  0  0  0
   28.8417   44.2668   45.2168 Cl  0  0  0  0  0  0  0  0  0  0  0  0
   29.6569   46.6930   46.0043 C   0  0  0  0  0  0  0  0  0  0  0  0
   30.5720   48.5414   48.1546 C   0  0  0  0  0  0  0  0  0  0  0  0
   31.2757   49.3207   49.0472 C   0  0  0  0  0  0  0  0  0  0  0  0
   31.7933   52.3145   50.8424 N   0  0  0  0  0  0  0  0  0  0  0  0
   31.0875   53.4215   50.2217 C   0  0  0  0  0  0  0  0  0  0  0  0
   30.2402   54.1729   51.2125 C   0  0  0  0  0  0  0  0  0  0  0  0
   33.5119   52.5429   48.8954 O   0  0  0  0  0  0  0  0  0  0  0  0
  1  2  2  0
  2  3  1  0
  2 23  1  1
  2 26  2  0
  3 22  2  0
  3  4  1  0
  4  5  2  0
  5  6  1  0
  6  7  1  0
  6 21  2  0
  7 20  1  0
  7  8  2  0
  8  9  1  0
 10  9  1  1
  9 17  2  0
 10 16  1  0
 10 11  1  0
 14 10  1  6
 11 12  1  0
 11 13  2  3
 15 14  1  6
 16 15  1  1
 17 18  1  0
 18 19  1  0
 18 20  2  0
 21 22  1  0
 24 23  1  6
 25 24  1  1
M  CHG  1  13   1
M  END
$$$$
