
     RDKit          3D

 26 28  0  0  0  0  0  0  0  0999 V2000
   17.0088   43.1022   49.3467 O   0  0  0  0  0  0  0  0  0  0  0  0
   17.3969   41.7836   49.9174 S   0  0  1  0  0  6  0  0  0  0  0  0
   16.7753   41.6709   51.5429 C   0  0  0  0  0  0  0  0  0  0  0  0
   17.4208   40.9006   52.4994 C   0  0  0  0  0  0  0  0  0  0  0  0
   16.9696   40.7808   53.7890 C   0  0  0  0  0  0  0  0  0  0  0  0
   15.8301   41.4420   54.1785 C   0  0  0  0  0  0  0  0  0  0  0  0
   15.3523   41.3082   55.5649 C   0  0  0  0  0  0  0  0  0  0  0  0
   13.9693   41.3285   55.8106 C   0  0  0  0  0  0  0  0  0  0  0  0
   13.4501   41.2105   57.0547 C   0  0  0  0  0  0  0  0  0  0  0  0
   12.0074   41.2350   57.3325 C   0  0  1  0  0  0  0  0  0  0  0  0
   11.5858   42.3137   58.2570 C   0  0  0  0  0  0  0  0  0  0  0  0
   12.0398   43.6422   58.0281 N   0  0  0  0  0  0  0  0  0  0  0  0
   10.8292   42.0755   59.2429 N   0  0  0  0  0  4  0  0  0  0  0  0
   11.1300   41.0321   56.1106 C   0  0  0  0  0  0  0  0  0  0  0  0
   10.1341   40.3811   57.0882 C   0  0  0  0  0  0  0  0  0  0  0  0
   11.4245   39.9246   57.8341 C   0  0  0  0  0  0  0  0  0  0  0  0
   14.3527   41.0642   58.1101 C   0  0  0  0  0  0  0  0  0  0  0  0
   15.7056   41.0441   57.8702 C   0  0  0  0  0  0  0  0  0  0  0  0
   16.8172   40.8607   59.2018 Cl  0  0  0  0  0  0  0  0  0  0  0  0
   16.2393   41.1642   56.6047 C   0  0  0  0  0  0  0  0  0  0  0  0
   15.1746   42.2097   53.2508 C   0  0  0  0  0  0  0  0  0  0  0  0
   15.6337   42.3256   51.9565 C   0  0  0  0  0  0  0  0  0  0  0  0
   16.8641   40.4883   48.9292 N   0  0  0  0  0  0  0  0  0  0  0  0
   15.4770   40.6456   48.5291 C   0  0  0  0  0  0  0  0  0  0  0  0
   15.1305   39.7751   47.3516 C   0  0  0  0  0  0  0  0  0  0  0  0
   18.9029   41.7089   50.0017 O   0  0  0  0  0  0  0  0  0  0  0  0
  1  2  2  0
  2  3  1  0
  2 23  1  6
  2 26  2  0
  3 22  2  0
  3  4  1  0
  4  5  2  0
  5  6  1  0
  6  7  1  0
  6 21  2  0
  7 20  1  0
  7  8  2  0
  8  9  1  0
 10  9  1  6
  9 17  2  0
 10 16  1  0
 10 11  1  0
 14 10  1  6
 11 12  1  0
 11 13  2  3
 15 14  1  6
 16 15  1  1
 17 18  1  0
 18 19  1  0
 18 20  2  0
 21 22  1  0
 24 23  1  6
 25 24  1  1
M  CHG  1  13   1
M  END
$$$$
