
     RDKit          3D

 26 28  0  0  0  0  0  0  0  0999 V2000
   32.1258   39.1929   65.1718 O   0  0  0  0  0  0  0  0  0  0  0  0
   30.7573   39.3251   64.6018 S   0  0  1  0  0  6  0  0  0  0  0  0
   29.6049   39.3551   65.9104 C   0  0  0  0  0  0  0  0  0  0  0  0
   29.9898   39.7330   67.1886 C   0  0  0  0  0  0  0  0  0  0  0  0
   29.1203   39.7710   68.2485 C   0  0  0  0  0  0  0  0  0  0  0  0
   27.8036   39.4246   68.0651 C   0  0  0  0  0  0  0  0  0  0  0  0
   26.8764   39.4681   69.2082 C   0  0  0  0  0  0  0  0  0  0  0  0
   27.1182   40.3868   70.2431 C   0  0  0  0  0  0  0  0  0  0  0  0
   26.3138   40.4899   71.3265 C   0  0  0  0  0  0  0  0  0  0  0  0
   26.5530   41.4401   72.4215 C   0  0  1  0  0  0  0  0  0  0  0  0
   27.6779   41.0690   73.3119 C   0  0  0  0  0  0  0  0  0  0  0  0
   27.5279   39.9673   74.1991 N   0  0  0  0  0  0  0  0  0  0  0  0
   28.7679   41.7115   73.2959 N   0  0  0  0  0  4  0  0  0  0  0  0
   26.4904   42.8998   72.0099 C   0  0  0  0  0  0  0  0  0  0  0  0
   25.9910   43.1535   73.4443 C   0  0  0  0  0  0  0  0  0  0  0  0
   25.3423   41.7449   73.2873 C   0  0  0  0  0  0  0  0  0  0  0  0
   25.2109   39.6353   71.3842 C   0  0  0  0  0  0  0  0  0  0  0  0
   24.9739   38.7366   70.3720 C   0  0  0  0  0  0  0  0  0  0  0  0
   23.5910   37.6774   70.4624 Cl  0  0  0  0  0  0  0  0  0  0  0  0
   25.7906   38.6277   69.2666 C   0  0  0  0  0  0  0  0  0  0  0  0
   27.3992   39.0477   66.8104 C   0  0  0  0  0  0  0  0  0  0  0  0
   28.2785   39.0117   65.7498 C   0  0  0  0  0  0  0  0  0  0  0  0
   30.6262   40.7039   63.5919 N   0  0  0  0  0  0  0  0  0  0  0  0
   29.4072   40.6851   62.8028 C   0  0  0  0  0  0  0  0  0  0  0  0
   29.0393   42.0570   62.3059 C   0  0  0  0  0  0  0  0  0  0  0  0
   30.4561   38.1078   63.7602 O   0  0  0  0  0  0  0  0  0  0  0  0
  1  2  2  0
  2  3  1  0
  2 23  1  6
  2 26  2  0
  3 22  2  0
  3  4  1  0
  4  5  2  0
  5  6  1  0
  6  7  1  0
  6 21  2  0
  7 20  1  0
  7  8  2  0
  8  9  1  0
 10  9  1  6
  9 17  2  0
 10 16  1  0
 10 11  1  0
 14 10  1  6
 11 12  1  0
 11 13  2  3
 15 14  1  6
 16 15  1  1
 17 18  1  0
 18 19  1  0
 18 20  2  0
 21 22  1  0
 24 23  1  6
 25 24  1  1
M  CHG  1  13   1
M  END
$$$$
