
     RDKit          3D

 26 28  0  0  0  0  0  0  0  0999 V2000
   17.6655   39.2439   71.6702 O   0  0  0  0  0  0  0  0  0  0  0  0
   18.5154   40.2184   70.9332 S   0  0  1  0  0  6  0  0  0  0  0  0
   17.5781   40.9118   69.6362 C   0  0  0  0  0  0  0  0  0  0  0  0
   18.1424   41.8309   68.7635 C   0  0  0  0  0  0  0  0  0  0  0  0
   17.4453   42.4033   67.7303 C   0  0  0  0  0  0  0  0  0  0  0  0
   16.1282   42.0702   67.5273 C   0  0  0  0  0  0  0  0  0  0  0  0
   15.3867   42.6893   66.4157 C   0  0  0  0  0  0  0  0  0  0  0  0
   14.0527   43.0776   66.6233 C   0  0  0  0  0  0  0  0  0  0  0  0
   13.3040   43.6534   65.6542 C   0  0  0  0  0  0  0  0  0  0  0  0
   11.9059   44.0611   65.8500 C   0  0  1  0  0  0  0  0  0  0  0  0
   11.7432   45.3342   66.5907 C   0  0  0  0  0  0  0  0  0  0  0  0
   10.4339   45.8328   66.8367 N   0  0  0  0  0  0  0  0  0  0  0  0
   12.7455   45.9834   67.0093 N   0  0  0  0  0  4  0  0  0  0  0  0
   11.0262   43.8930   64.6244 C   0  0  0  0  0  0  0  0  0  0  0  0
    9.8858   43.6501   65.6303 C   0  0  0  0  0  0  0  0  0  0  0  0
   11.0140   43.0163   66.4992 C   0  0  0  0  0  0  0  0  0  0  0  0
   13.9132   43.8543   64.4138 C   0  0  0  0  0  0  0  0  0  0  0  0
   15.2181   43.4749   64.2105 C   0  0  0  0  0  0  0  0  0  0  0  0
   15.9614   43.7341   62.6539 Cl  0  0  0  0  0  0  0  0  0  0  0  0
   15.9848   42.8877   65.1944 C   0  0  0  0  0  0  0  0  0  0  0  0
   15.5483   41.1638   68.3769 C   0  0  0  0  0  0  0  0  0  0  0  0
   16.2548   40.5925   69.4132 C   0  0  0  0  0  0  0  0  0  0  0  0
   19.1553   41.4145   71.9809 N   0  0  0  0  0  0  0  0  0  0  0  0
   18.1089   42.1963   72.6158 C   0  0  0  0  0  0  0  0  0  0  0  0
   18.6481   43.0611   73.7230 C   0  0  0  0  0  0  0  0  0  0  0  0
   19.6779   39.4831   70.3096 O   0  0  0  0  0  0  0  0  0  0  0  0
  1  2  2  0
  2  3  1  0
  2 23  1  1
  2 26  2  0
  3 22  2  0
  3  4  1  0
  4  5  2  0
  5  6  1  0
  6  7  1  0
  6 21  2  0
  7 20  1  0
  7  8  2  0
  8  9  1  0
 10  9  1  6
  9 17  2  0
 10 16  1  0
 10 11  1  0
 14 10  1  6
 11 12  1  0
 11 13  2  3
 15 14  1  6
 16 15  1  1
 17 18  1  0
 18 19  1  0
 18 20  2  0
 21 22  1  0
 24 23  1  6
 25 24  1  1
M  CHG  1  13   1
M  END
$$$$
