
     RDKit          3D

 26 28  0  0  0  0  0  0  0  0999 V2000
   24.2102   40.7278   69.2689 O   0  0  0  0  0  0  0  0  0  0  0  0
   24.1506   40.0496   67.9454 S   0  0  1  0  0  6  0  0  0  0  0  0
   22.6609   40.4926   67.1544 C   0  0  0  0  0  0  0  0  0  0  0  0
   21.4572   40.4764   67.8442 C   0  0  0  0  0  0  0  0  0  0  0  0
   20.2612   40.8153   67.2648 C   0  0  0  0  0  0  0  0  0  0  0  0
   20.2240   41.1917   65.9441 C   0  0  0  0  0  0  0  0  0  0  0  0
   18.9358   41.5541   65.3295 C   0  0  0  0  0  0  0  0  0  0  0  0
   18.6986   41.1980   63.9915 C   0  0  0  0  0  0  0  0  0  0  0  0
   17.5416   41.4932   63.3547 C   0  0  0  0  0  0  0  0  0  0  0  0
   17.2770   41.1345   61.9546 C   0  0  1  0  0  0  0  0  0  0  0  0
   18.3258   41.5776   61.0061 C   0  0  0  0  0  0  0  0  0  0  0  0
   19.1827   40.6083   60.4148 N   0  0  0  0  0  0  0  0  0  0  0  0
   18.4713   42.7996   60.7115 N   0  0  0  0  0  4  0  0  0  0  0  0
   16.7619   39.7205   61.7562 C   0  0  0  0  0  0  0  0  0  0  0  0
   16.0119   40.2976   60.5414 C   0  0  0  0  0  0  0  0  0  0  0  0
   15.9291   41.5846   61.4168 C   0  0  0  0  0  0  0  0  0  0  0  0
   16.5690   42.1780   64.0863 C   0  0  0  0  0  0  0  0  0  0  0  0
   16.8005   42.5263   65.3952 C   0  0  0  0  0  0  0  0  0  0  0  0
   15.5733   43.3816   66.2924 Cl  0  0  0  0  0  0  0  0  0  0  0  0
   17.9776   42.2281   66.0481 C   0  0  0  0  0  0  0  0  0  0  0  0
   21.4010   41.2156   65.2415 C   0  0  0  0  0  0  0  0  0  0  0  0
   22.5993   40.8736   65.8301 C   0  0  0  0  0  0  0  0  0  0  0  0
   25.5251   40.4143   66.9885 N   0  0  0  0  0  0  0  0  0  0  0  0
   26.0632   39.2325   66.3383 C   0  0  0  0  0  0  0  0  0  0  0  0
   27.4252   39.4863   65.7510 C   0  0  0  0  0  0  0  0  0  0  0  0
   24.1228   38.5549   68.1603 O   0  0  0  0  0  0  0  0  0  0  0  0
  1  2  2  0
  2  3  1  0
  2 23  1  6
  2 26  2  0
  3 22  2  0
  3  4  1  0
  4  5  2  0
  5  6  1  0
  6  7  1  0
  6 21  2  0
  7 20  1  0
  7  8  2  0
  8  9  1  0
 10  9  1  1
  9 17  2  0
 10 16  1  0
 10 11  1  0
 14 10  1  6
 11 12  1  0
 11 13  2  3
 15 14  1  6
 16 15  1  1
 17 18  1  0
 18 19  1  0
 18 20  2  0
 21 22  1  0
 24 23  1  6
 25 24  1  1
M  CHG  1  13   1
M  END
$$$$
