
     RDKit          3D

 26 28  0  0  0  0  0  0  0  0999 V2000
   14.7457   41.8313   61.4720 O   0  0  0  0  0  0  0  0  0  0  0  0
   15.9075   40.9783   61.1009 S   0  0  1  0  0  6  0  0  0  0  0  0
   15.9072   40.7513   59.3718 C   0  0  0  0  0  0  0  0  0  0  0  0
   16.2797   39.5369   58.8139 C   0  0  0  0  0  0  0  0  0  0  0  0
   16.2961   39.3116   57.4611 C   0  0  0  0  0  0  0  0  0  0  0  0
   15.9323   40.3154   56.5967 C   0  0  0  0  0  0  0  0  0  0  0  0
   15.9526   40.0654   55.1456 C   0  0  0  0  0  0  0  0  0  0  0  0
   15.9073   41.1613   54.2679 C   0  0  0  0  0  0  0  0  0  0  0  0
   15.9231   41.0164   52.9225 C   0  0  0  0  0  0  0  0  0  0  0  0
   15.8708   42.1494   51.9883 C   0  0  1  0  0  0  0  0  0  0  0  0
   16.9823   42.1800   51.0088 C   0  0  0  0  0  0  0  0  0  0  0  0
   16.9577   41.2875   49.9015 N   0  0  0  0  0  0  0  0  0  0  0  0
   17.9498   42.9853   51.1380 N   0  0  0  0  0  4  0  0  0  0  0  0
   14.4894   42.4376   51.4289 C   0  0  0  0  0  0  0  0  0  0  0  0
   14.9559   43.9039   51.3697 C   0  0  0  0  0  0  0  0  0  0  0  0
   15.7736   43.5187   52.6396 C   0  0  0  0  0  0  0  0  0  0  0  0
   15.9876   39.7139   52.4232 C   0  0  0  0  0  0  0  0  0  0  0  0
   16.0321   38.6417   53.2814 C   0  0  0  0  0  0  0  0  0  0  0  0
   16.1122   37.0222   52.6383 Cl  0  0  0  0  0  0  0  0  0  0  0  0
   16.0160   38.7842   54.6526 C   0  0  0  0  0  0  0  0  0  0  0  0
   15.5601   41.5248   57.1245 C   0  0  0  0  0  0  0  0  0  0  0  0
   15.5460   41.7442   58.4850 C   0  0  0  0  0  0  0  0  0  0  0  0
   17.3828   41.6428   61.6665 N   0  0  0  0  0  0  0  0  0  0  0  0
   18.4745   40.6885   61.5856 C   0  0  0  0  0  0  0  0  0  0  0  0
   19.5058   40.9237   62.6558 C   0  0  0  0  0  0  0  0  0  0  0  0
   15.7414   39.6185   61.7368 O   0  0  0  0  0  0  0  0  0  0  0  0
  1  2  2  0
  2  3  1  0
  2 23  1  1
  2 26  2  0
  3 22  2  0
  3  4  1  0
  4  5  2  0
  5  6  1  0
  6  7  1  0
  6 21  2  0
  7 20  1  0
  7  8  2  0
  8  9  1  0
 10  9  1  1
  9 17  2  0
 10 16  1  0
 10 11  1  0
 14 10  1  6
 11 12  1  0
 11 13  2  3
 15 14  1  6
 16 15  1  1
 17 18  1  0
 18 19  1  0
 18 20  2  0
 21 22  1  0
 24 23  1  6
 25 24  1  1
M  CHG  1  13   1
M  END
$$$$
