
     RDKit          3D

 26 28  0  0  0  0  0  0  0  0999 V2000
   30.0450   36.4924   47.1556 O   0  0  0  0  0  0  0  0  0  0  0  0
   31.0533   37.5126   47.5530 S   0  0  1  0  0  6  0  0  0  0  0  0
   30.9502   37.7620   49.2759 C   0  0  0  0  0  0  0  0  0  0  0  0
   29.7764   38.2159   49.8599 C   0  0  0  0  0  0  0  0  0  0  0  0
   29.6481   38.4276   51.2088 C   0  0  0  0  0  0  0  0  0  0  0  0
   30.7133   38.1879   52.0426 C   0  0  0  0  0  0  0  0  0  0  0  0
   30.5674   38.4177   53.4897 C   0  0  0  0  0  0  0  0  0  0  0  0
   31.6328   39.0024   54.1944 C   0  0  0  0  0  0  0  0  0  0  0  0
   31.5774   39.2474   55.5242 C   0  0  0  0  0  0  0  0  0  0  0  0
   32.6828   39.8526   56.2798 C   0  0  1  0  0  0  0  0  0  0  0  0
   32.7028   41.3339   56.2440 C   0  0  0  0  0  0  0  0  0  0  0  0
   32.1853   42.0630   57.3503 N   0  0  0  0  0  0  0  0  0  0  0  0
   33.1727   41.9607   55.2502 N   0  0  0  0  0  4  0  0  0  0  0  0
   32.9341   39.2214   57.6372 C   0  0  0  0  0  0  0  0  0  0  0  0
   34.4051   39.6155   57.4091 C   0  0  0  0  0  0  0  0  0  0  0  0
   34.0682   39.3497   55.9106 C   0  0  0  0  0  0  0  0  0  0  0  0
   30.4013   38.8931   56.1884 C   0  0  0  0  0  0  0  0  0  0  0  0
   29.3589   38.3213   55.4995 C   0  0  0  0  0  0  0  0  0  0  0  0
   27.8979   37.8856   56.3470 Cl  0  0  0  0  0  0  0  0  0  0  0  0
   29.4106   38.0696   54.1449 C   0  0  0  0  0  0  0  0  0  0  0  0
   31.8843   37.7386   51.4887 C   0  0  0  0  0  0  0  0  0  0  0  0
   32.0061   37.5280   50.1322 C   0  0  0  0  0  0  0  0  0  0  0  0
   32.6316   37.0646   47.0569 N   0  0  0  0  0  0  0  0  0  0  0  0
   33.5066   38.2161   46.9244 C   0  0  0  0  0  0  0  0  0  0  0  0
   34.6125   37.9694   45.9343 C   0  0  0  0  0  0  0  0  0  0  0  0
   30.7154   38.8237   46.8840 O   0  0  0  0  0  0  0  0  0  0  0  0
  1  2  2  0
  2  3  1  0
  2 23  1  1
  2 26  2  0
  3 22  2  0
  3  4  1  0
  4  5  2  0
  5  6  1  0
  6  7  1  0
  6 21  2  0
  7 20  1  0
  7  8  2  0
  8  9  1  0
 10  9  1  6
  9 17  2  0
 10 16  1  0
 10 11  1  0
 14 10  1  6
 11 12  1  0
 11 13  2  3
 15 14  1  6
 16 15  1  1
 17 18  1  0
 18 19  1  0
 18 20  2  0
 21 22  1  0
 24 23  1  6
 25 24  1  1
M  CHG  1  13   1
M  END
$$$$
