
     RDKit          3D

 26 28  0  0  0  0  0  0  0  0999 V2000
   22.1472   48.0982   48.2007 O   0  0  0  0  0  0  0  0  0  0  0  0
   23.1003   49.0657   48.8093 S   0  0  1  0  0  6  0  0  0  0  0  0
   24.7248   48.5987   48.3799 C   0  0  0  0  0  0  0  0  0  0  0  0
   25.8193   49.2857   48.8846 C   0  0  0  0  0  0  0  0  0  0  0  0
   27.1141   48.9561   48.5749 C   0  0  0  0  0  0  0  0  0  0  0  0
   27.3678   47.9032   47.7298 C   0  0  0  0  0  0  0  0  0  0  0  0
   28.7608   47.5558   47.4023 C   0  0  0  0  0  0  0  0  0  0  0  0
   29.6720   48.5900   47.1309 C   0  0  0  0  0  0  0  0  0  0  0  0
   30.9685   48.3545   46.8231 C   0  0  0  0  0  0  0  0  0  0  0  0
   31.9351   49.4219   46.5308 C   0  0  1  0  0  0  0  0  0  0  0  0
   31.4181   50.4783   45.6292 C   0  0  0  0  0  0  0  0  0  0  0  0
   31.1461   50.1601   44.2698 N   0  0  0  0  0  0  0  0  0  0  0  0
   31.2128   51.6552   46.0463 N   0  0  0  0  0  4  0  0  0  0  0  0
   32.7166   49.9081   47.7378 C   0  0  0  0  0  0  0  0  0  0  0  0
   33.8486   50.1933   46.7337 C   0  0  0  0  0  0  0  0  0  0  0  0
   33.2742   48.9495   45.9903 C   0  0  0  0  0  0  0  0  0  0  0  0
   31.3814   47.0211   46.7833 C   0  0  0  0  0  0  0  0  0  0  0  0
   30.4905   46.0092   47.0488 C   0  0  0  0  0  0  0  0  0  0  0  0
   31.0253   44.3498   46.9939 Cl  0  0  0  0  0  0  0  0  0  0  0  0
   29.1687   46.2440   47.3626 C   0  0  0  0  0  0  0  0  0  0  0  0
   26.3021   47.2087   47.2183 C   0  0  0  0  0  0  0  0  0  0  0  0
   25.0035   47.5454   47.5337 C   0  0  0  0  0  0  0  0  0  0  0  0
   22.7454   50.6768   48.3439 N   0  0  0  0  0  0  0  0  0  0  0  0
   22.5095   50.7899   46.9154 C   0  0  0  0  0  0  0  0  0  0  0  0
   22.9398   52.1287   46.3799 C   0  0  0  0  0  0  0  0  0  0  0  0
   22.9882   48.9858   50.3133 O   0  0  0  0  0  0  0  0  0  0  0  0
  1  2  2  0
  2  3  1  0
  2 23  1  6
  2 26  2  0
  3 22  2  0
  3  4  1  0
  4  5  2  0
  5  6  1  0
  6  7  1  0
  6 21  2  0
  7 20  1  0
  7  8  2  0
  8  9  1  0
 10  9  1  1
  9 17  2  0
 10 16  1  0
 10 11  1  0
 14 10  1  6
 11 12  1  0
 11 13  2  3
 15 14  1  6
 16 15  1  1
 17 18  1  0
 18 19  1  0
 18 20  2  0
 21 22  1  0
 24 23  1  6
 25 24  1  1
M  CHG  1  13   1
M  END
$$$$
