
     RDKit          3D

 26 28  0  0  0  0  0  0  0  0999 V2000
   21.9354   40.6112   70.7889 O   0  0  0  0  0  0  0  0  0  0  0  0
   23.1615   39.9186   71.2706 S   0  0  1  0  0  6  0  0  0  0  0  0
   24.2966   39.8049   69.9516 C   0  0  0  0  0  0  0  0  0  0  0  0
   24.5138   40.8826   69.1053 C   0  0  0  0  0  0  0  0  0  0  0  0
   25.3949   40.8401   68.0551 C   0  0  0  0  0  0  0  0  0  0  0  0
   26.1075   39.6922   67.8068 C   0  0  0  0  0  0  0  0  0  0  0  0
   27.0515   39.6548   66.6773 C   0  0  0  0  0  0  0  0  0  0  0  0
   28.3544   39.1782   66.8978 C   0  0  0  0  0  0  0  0  0  0  0  0
   29.2803   39.1110   65.9131 C   0  0  0  0  0  0  0  0  0  0  0  0
   30.6493   38.6210   66.1250 C   0  0  1  0  0  0  0  0  0  0  0  0
   31.5168   39.5531   66.8831 C   0  0  0  0  0  0  0  0  0  0  0  0
   32.2112   40.5797   66.1851 N   0  0  0  0  0  0  0  0  0  0  0  0
   31.6491   39.4540   68.1376 N   0  0  0  0  0  4  0  0  0  0  0  0
   30.7371   37.1606   66.5293 C   0  0  0  0  0  0  0  0  0  0  0  0
   32.0896   37.1673   65.7932 C   0  0  0  0  0  0  0  0  0  0  0  0
   31.3877   38.2038   64.8644 C   0  0  0  0  0  0  0  0  0  0  0  0
   28.8908   39.5397   64.6425 C   0  0  0  0  0  0  0  0  0  0  0  0
   27.6163   40.0058   64.4264 C   0  0  0  0  0  0  0  0  0  0  0  0
   27.1487   40.5370   62.8320 Cl  0  0  0  0  0  0  0  0  0  0  0  0
   26.6697   40.0764   65.4262 C   0  0  0  0  0  0  0  0  0  0  0  0
   25.9100   38.6136   68.6298 C   0  0  0  0  0  0  0  0  0  0  0  0
   25.0229   38.6632   69.6834 C   0  0  0  0  0  0  0  0  0  0  0  0
   23.8335   40.7055   72.6371 N   0  0  0  0  0  0  0  0  0  0  0  0
   23.8916   42.1458   72.4603 C   0  0  0  0  0  0  0  0  0  0  0  0
   23.0794   42.8717   73.4985 C   0  0  0  0  0  0  0  0  0  0  0  0
   22.8010   38.5107   71.6813 O   0  0  0  0  0  0  0  0  0  0  0  0
  1  2  2  0
  2  3  1  0
  2 23  1  1
  2 26  2  0
  3 22  2  0
  3  4  1  0
  4  5  2  0
  5  6  1  0
  6  7  1  0
  6 21  2  0
  7 20  1  0
  7  8  2  0
  8  9  1  0
 10  9  1  6
  9 17  2  0
 10 16  1  0
 10 11  1  0
 14 10  1  6
 11 12  1  0
 11 13  2  3
 15 14  1  6
 16 15  1  1
 17 18  1  0
 18 19  1  0
 18 20  2  0
 21 22  1  0
 24 23  1  6
 25 24  1  1
M  CHG  1  13   1
M  END
$$$$
