
     RDKit          3D

 26 28  0  0  0  0  0  0  0  0999 V2000
   11.6403   53.9630   67.8384 O   0  0  0  0  0  0  0  0  0  0  0  0
   12.5794   53.0108   68.4914 S   0  0  1  0  0  6  0  0  0  0  0  0
   12.1081   51.3840   68.0759 C   0  0  0  0  0  0  0  0  0  0  0  0
   12.0892   50.9648   66.7535 C   0  0  0  0  0  0  0  0  0  0  0  0
   11.7252   49.6968   66.3784 C   0  0  0  0  0  0  0  0  0  0  0  0
   11.3583   48.7804   67.3337 C   0  0  0  0  0  0  0  0  0  0  0  0
   10.9688   47.4210   66.9227 C   0  0  0  0  0  0  0  0  0  0  0  0
   10.1113   47.2651   65.8210 C   0  0  0  0  0  0  0  0  0  0  0  0
    9.7077   46.0510   65.3799 C   0  0  0  0  0  0  0  0  0  0  0  0
    8.8071   45.8677   64.2334 C   0  0  1  0  0  0  0  0  0  0  0  0
    9.3513   46.3665   62.9485 C   0  0  0  0  0  0  0  0  0  0  0  0
   10.3546   45.6125   62.2791 N   0  0  0  0  0  0  0  0  0  0  0  0
    8.9391   47.4476   62.4361 N   0  0  0  0  0  4  0  0  0  0  0  0
    8.1274   44.5115   64.1807 C   0  0  0  0  0  0  0  0  0  0  0  0
    6.9679   45.2584   63.4960 C   0  0  0  0  0  0  0  0  0  0  0  0
    7.4107   46.4393   64.4120 C   0  0  0  0  0  0  0  0  0  0  0  0
   10.1814   44.9332   66.0699 C   0  0  0  0  0  0  0  0  0  0  0  0
   11.0203   45.0853   67.1475 C   0  0  0  0  0  0  0  0  0  0  0  0
   11.6014   43.6767   67.9965 Cl  0  0  0  0  0  0  0  0  0  0  0  0
   11.4341   46.3199   67.6007 C   0  0  0  0  0  0  0  0  0  0  0  0
   11.3692   49.1712   68.6478 C   0  0  0  0  0  0  0  0  0  0  0  0
   11.7361   50.4472   69.0176 C   0  0  0  0  0  0  0  0  0  0  0  0
   14.2071   53.3415   68.0680 N   0  0  0  0  0  0  0  0  0  0  0  0
   14.6019   54.6887   68.4397 C   0  0  0  0  0  0  0  0  0  0  0  0
   16.0418   54.9650   68.1011 C   0  0  0  0  0  0  0  0  0  0  0  0
   12.4564   53.1497   69.9902 O   0  0  0  0  0  0  0  0  0  0  0  0
  1  2  2  0
  2  3  1  0
  2 23  1  6
  2 26  2  0
  3 22  2  0
  3  4  1  0
  4  5  2  0
  5  6  1  0
  6  7  1  0
  6 21  2  0
  7 20  1  0
  7  8  2  0
  8  9  1  0
 10  9  1  1
  9 17  2  0
 10 16  1  0
 10 11  1  0
 14 10  1  6
 11 12  1  0
 11 13  2  3
 15 14  1  6
 16 15  1  1
 17 18  1  0
 18 19  1  0
 18 20  2  0
 21 22  1  0
 24 23  1  6
 25 24  1  1
M  CHG  1  13   1
M  END
$$$$
