
     RDKit          3D

 26 28  0  0  0  0  0  0  0  0999 V2000
   23.2141   49.2444   50.6908 O   0  0  0  0  0  0  0  0  0  0  0  0
   23.5168   49.8956   49.3872 S   0  0  1  0  0  6  0  0  0  0  0  0
   25.0250   49.2636   48.7812 C   0  0  0  0  0  0  0  0  0  0  0  0
   25.8034   50.0020   47.9016 C   0  0  0  0  0  0  0  0  0  0  0  0
   26.9951   49.5468   47.3979 C   0  0  0  0  0  0  0  0  0  0  0  0
   27.4631   48.3081   47.7638 C   0  0  0  0  0  0  0  0  0  0  0  0
   28.7435   47.8267   47.2186 C   0  0  0  0  0  0  0  0  0  0  0  0
   29.7175   48.7671   46.8440 C   0  0  0  0  0  0  0  0  0  0  0  0
   30.9190   48.4064   46.3363 C   0  0  0  0  0  0  0  0  0  0  0  0
   31.9482   49.3747   45.9335 C   0  0  1  0  0  0  0  0  0  0  0  0
   32.9628   49.6514   46.9775 C   0  0  0  0  0  0  0  0  0  0  0  0
   33.9941   48.7007   47.2138 N   0  0  0  0  0  0  0  0  0  0  0  0
   32.9297   50.7166   47.6598 N   0  0  0  0  0  4  0  0  0  0  0  0
   32.4851   49.1710   44.5284 C   0  0  0  0  0  0  0  0  0  0  0  0
   32.6902   50.6972   44.5198 C   0  0  0  0  0  0  0  0  0  0  0  0
   31.4187   50.7036   45.4215 C   0  0  0  0  0  0  0  0  0  0  0  0
   31.1655   47.0393   46.1937 C   0  0  0  0  0  0  0  0  0  0  0  0
   30.2131   46.1191   46.5602 C   0  0  0  0  0  0  0  0  0  0  0  0
   30.5397   44.4158   46.3744 Cl  0  0  0  0  0  0  0  0  0  0  0  0
   28.9876   46.4816   47.0777 C   0  0  0  0  0  0  0  0  0  0  0  0
   26.7114   47.5596   48.6323 C   0  0  0  0  0  0  0  0  0  0  0  0
   25.5147   48.0233   49.1345 C   0  0  0  0  0  0  0  0  0  0  0  0
   22.2338   49.6926   48.2689 N   0  0  0  0  0  0  0  0  0  0  0  0
   21.2461   50.7517   48.3776 C   0  0  0  0  0  0  0  0  0  0  0  0
   20.1378   50.3899   49.3289 C   0  0  0  0  0  0  0  0  0  0  0  0
   23.7031   51.3776   49.6101 O   0  0  0  0  0  0  0  0  0  0  0  0
  1  2  2  0
  2  3  1  0
  2 23  1  6
  2 26  2  0
  3 22  2  0
  3  4  1  0
  4  5  2  0
  5  6  1  0
  6  7  1  0
  6 21  2  0
  7 20  1  0
  7  8  2  0
  8  9  1  0
 10  9  1  1
  9 17  2  0
 10 16  1  0
 10 11  1  0
 14 10  1  6
 11 12  1  0
 11 13  2  3
 15 14  1  6
 16 15  1  1
 17 18  1  0
 18 19  1  0
 18 20  2  0
 21 22  1  0
 24 23  1  6
 25 24  1  1
M  CHG  1  13   1
M  END
$$$$
