
     RDKit          3D

 26 28  0  0  0  0  0  0  0  0999 V2000
   26.7473   49.9730   47.7744 O   0  0  0  0  0  0  0  0  0  0  0  0
   27.7868   48.9087   47.7358 S   0  0  1  0  0  6  0  0  0  0  0  0
   28.1187   48.5086   46.0712 C   0  0  0  0  0  0  0  0  0  0  0  0
   28.6364   49.4573   45.2013 C   0  0  0  0  0  0  0  0  0  0  0  0
   28.9124   49.1899   43.8847 C   0  0  0  0  0  0  0  0  0  0  0  0
   28.6755   47.9352   43.3780 C   0  0  0  0  0  0  0  0  0  0  0  0
   28.9746   47.6562   41.9634 C   0  0  0  0  0  0  0  0  0  0  0  0
   28.1064   46.8234   41.2381 C   0  0  0  0  0  0  0  0  0  0  0  0
   28.3102   46.5192   39.9352 C   0  0  0  0  0  0  0  0  0  0  0  0
   27.4171   45.6459   39.1614 C   0  0  1  0  0  0  0  0  0  0  0  0
   25.9919   45.7308   39.5583 C   0  0  0  0  0  0  0  0  0  0  0  0
   25.3011   46.9653   39.4088 N   0  0  0  0  0  0  0  0  0  0  0  0
   25.3789   44.7268   40.0246 N   0  0  0  0  0  4  0  0  0  0  0  0
   27.6874   45.6380   37.6678 C   0  0  0  0  0  0  0  0  0  0  0  0
   27.1765   44.1860   37.7093 C   0  0  0  0  0  0  0  0  0  0  0  0
   27.8154   44.1800   39.1310 C   0  0  0  0  0  0  0  0  0  0  0  0
   29.4357   47.0722   39.3209 C   0  0  0  0  0  0  0  0  0  0  0  0
   30.2851   47.8870   40.0300 C   0  0  0  0  0  0  0  0  0  0  0  0
   31.6859   48.5681   39.2449 Cl  0  0  0  0  0  0  0  0  0  0  0  0
   30.0819   48.1996   41.3573 C   0  0  0  0  0  0  0  0  0  0  0  0
   28.1641   46.9804   44.2186 C   0  0  0  0  0  0  0  0  0  0  0  0
   27.8890   47.2561   45.5406 C   0  0  0  0  0  0  0  0  0  0  0  0
   29.2008   49.3784   48.5831 N   0  0  0  0  0  0  0  0  0  0  0  0
   29.0056   49.3524   50.0220 C   0  0  0  0  0  0  0  0  0  0  0  0
   28.8626   50.7368   50.5940 C   0  0  0  0  0  0  0  0  0  0  0  0
   27.2430   47.6666   48.4009 O   0  0  0  0  0  0  0  0  0  0  0  0
  1  2  2  0
  2  3  1  0
  2 23  1  1
  2 26  2  0
  3 22  2  0
  3  4  1  0
  4  5  2  0
  5  6  1  0
  6  7  1  0
  6 21  2  0
  7 20  1  0
  7  8  2  0
  8  9  1  0
 10  9  1  1
  9 17  2  0
 10 16  1  0
 10 11  1  0
 14 10  1  6
 11 12  1  0
 11 13  2  3
 15 14  1  6
 16 15  1  1
 17 18  1  0
 18 19  1  0
 18 20  2  0
 21 22  1  0
 24 23  1  6
 25 24  1  1
M  CHG  1  13   1
M  END
$$$$
