
     RDKit          3D

 26 28  0  0  0  0  0  0  0  0999 V2000
   10.4886   39.9508   55.6283 O   0  0  0  0  0  0  0  0  0  0  0  0
   11.2660   40.8331   56.5405 S   0  0  1  0  0  6  0  0  0  0  0  0
   12.9637   40.6503   56.1860 C   0  0  0  0  0  0  0  0  0  0  0  0
   13.9282   41.0532   57.0982 C   0  0  0  0  0  0  0  0  0  0  0  0
   15.2739   40.9305   56.8637 C   0  0  0  0  0  0  0  0  0  0  0  0
   15.7148   40.3879   55.6811 C   0  0  0  0  0  0  0  0  0  0  0  0
   17.1613   40.2596   55.4370 C   0  0  0  0  0  0  0  0  0  0  0  0
   18.0050   39.9389   56.5134 C   0  0  0  0  0  0  0  0  0  0  0  0
   19.3439   39.8020   56.3720 C   0  0  0  0  0  0  0  0  0  0  0  0
   20.2434   39.4727   57.4863 C   0  0  1  0  0  0  0  0  0  0  0  0
   20.0534   38.1101   58.0371 C   0  0  0  0  0  0  0  0  0  0  0  0
   19.7958   37.0305   57.1474 N   0  0  0  0  0  0  0  0  0  0  0  0
   20.1181   37.8896   59.2814 N   0  0  0  0  0  4  0  0  0  0  0  0
   21.6832   39.9065   57.2792 C   0  0  0  0  0  0  0  0  0  0  0  0
   21.7251   40.0635   58.8104 C   0  0  0  0  0  0  0  0  0  0  0  0
   20.2268   40.4589   58.6420 C   0  0  0  0  0  0  0  0  0  0  0  0
   19.8720   39.9937   55.0936 C   0  0  0  0  0  0  0  0  0  0  0  0
   19.0471   40.3072   54.0404 C   0  0  0  0  0  0  0  0  0  0  0  0
   19.7257   40.5429   52.4509 Cl  0  0  0  0  0  0  0  0  0  0  0  0
   17.6826   40.4479   54.1794 C   0  0  0  0  0  0  0  0  0  0  0  0
   14.7803   39.9820   54.7637 C   0  0  0  0  0  0  0  0  0  0  0  0
   13.4295   40.1084   55.0060 C   0  0  0  0  0  0  0  0  0  0  0  0
   10.7530   42.4646   56.4271 N   0  0  0  0  0  0  0  0  0  0  0  0
   10.4746   42.8522   55.0555 C   0  0  0  0  0  0  0  0  0  0  0  0
   10.4702   44.3473   54.8848 C   0  0  0  0  0  0  0  0  0  0  0  0
   11.0489   40.3803   57.9648 O   0  0  0  0  0  0  0  0  0  0  0  0
  1  2  2  0
  2  3  1  0
  2 23  1  1
  2 26  2  0
  3 22  2  0
  3  4  1  0
  4  5  2  0
  5  6  1  0
  6  7  1  0
  6 21  2  0
  7 20  1  0
  7  8  2  0
  8  9  1  0
 10  9  1  6
  9 17  2  0
 10 16  1  0
 10 11  1  0
 14 10  1  6
 11 12  1  0
 11 13  2  3
 15 14  1  6
 16 15  1  1
 17 18  1  0
 18 19  1  0
 18 20  2  0
 21 22  1  0
 24 23  1  6
 25 24  1  1
M  CHG  1  13   1
M  END
$$$$
