
     RDKit          3D

 26 28  0  0  0  0  0  0  0  0999 V2000
   24.7531   39.0275   60.5189 O   0  0  0  0  0  0  0  0  0  0  0  0
   23.7835   40.1390   60.7173 S   0  0  1  0  0  6  0  0  0  0  0  0
   22.3790   39.8419   59.7271 C   0  0  0  0  0  0  0  0  0  0  0  0
   21.7719   40.8737   59.0260 C   0  0  0  0  0  0  0  0  0  0  0  0
   20.6661   40.6888   58.2360 C   0  0  0  0  0  0  0  0  0  0  0  0
   20.1141   39.4367   58.1153 C   0  0  0  0  0  0  0  0  0  0  0  0
   18.9268   39.2466   57.2652 C   0  0  0  0  0  0  0  0  0  0  0  0
   17.8407   40.1256   57.4107 C   0  0  0  0  0  0  0  0  0  0  0  0
   16.7146   40.0191   56.6677 C   0  0  0  0  0  0  0  0  0  0  0  0
   15.5662   40.9247   56.8089 C   0  0  1  0  0  0  0  0  0  0  0  0
   15.5558   42.0469   55.8412 C   0  0  0  0  0  0  0  0  0  0  0  0
   15.7769   41.7776   54.4621 N   0  0  0  0  0  0  0  0  0  0  0  0
   15.3522   43.2375   56.2182 N   0  0  0  0  0  4  0  0  0  0  0  0
   14.2369   40.2232   57.0210 C   0  0  0  0  0  0  0  0  0  0  0  0
   13.8488   41.4731   57.8325 C   0  0  0  0  0  0  0  0  0  0  0  0
   15.3629   41.4965   58.2019 C   0  0  0  0  0  0  0  0  0  0  0  0
   16.6656   38.9849   55.7306 C   0  0  0  0  0  0  0  0  0  0  0  0
   17.7279   38.1251   55.5878 C   0  0  0  0  0  0  0  0  0  0  0  0
   17.6476   36.8393   54.4118 Cl  0  0  0  0  0  0  0  0  0  0  0  0
   18.8770   38.2293   56.3425 C   0  0  0  0  0  0  0  0  0  0  0  0
   20.6966   38.4007   58.7988 C   0  0  0  0  0  0  0  0  0  0  0  0
   21.8077   38.5937   59.5909 C   0  0  0  0  0  0  0  0  0  0  0  0
   23.3797   40.3347   62.3716 N   0  0  0  0  0  0  0  0  0  0  0  0
   21.9911   40.0008   62.6348 C   0  0  0  0  0  0  0  0  0  0  0  0
   21.6788   40.0190   64.1067 C   0  0  0  0  0  0  0  0  0  0  0  0
   24.4097   41.4281   60.2408 O   0  0  0  0  0  0  0  0  0  0  0  0
  1  2  2  0
  2  3  1  0
  2 23  1  1
  2 26  2  0
  3 22  2  0
  3  4  1  0
  4  5  2  0
  5  6  1  0
  6  7  1  0
  6 21  2  0
  7 20  1  0
  7  8  2  0
  8  9  1  0
 10  9  1  1
  9 17  2  0
 10 16  1  0
 10 11  1  0
 14 10  1  6
 11 12  1  0
 11 13  2  3
 15 14  1  6
 16 15  1  1
 17 18  1  0
 18 19  1  0
 18 20  2  0
 21 22  1  0
 24 23  1  6
 25 24  1  1
M  CHG  1  13   1
M  END
$$$$
