
     RDKit          3D

 26 28  0  0  0  0  0  0  0  0999 V2000
   31.5550   49.0797   42.5598 O   0  0  0  0  0  0  0  0  0  0  0  0
   31.7255   49.8853   43.7996 S   0  0  1  0  0  6  0  0  0  0  0  0
   30.3326   49.6447   44.8210 C   0  0  0  0  0  0  0  0  0  0  0  0
   29.8517   48.3692   45.0792 C   0  0  0  0  0  0  0  0  0  0  0  0
   28.7601   48.1307   45.8745 C   0  0  0  0  0  0  0  0  0  0  0  0
   28.0940   49.1830   46.4543 C   0  0  0  0  0  0  0  0  0  0  0  0
   26.9229   48.9184   47.3069 C   0  0  0  0  0  0  0  0  0  0  0  0
   25.8316   49.8014   47.2533 C   0  0  0  0  0  0  0  0  0  0  0  0
   24.7187   49.6281   48.0035 C   0  0  0  0  0  0  0  0  0  0  0  0
   23.5696   50.5432   47.9657 C   0  0  1  0  0  0  0  0  0  0  0  0
   22.6769   50.3484   46.7991 C   0  0  0  0  0  0  0  0  0  0  0  0
   22.5218   49.0443   46.2526 N   0  0  0  0  0  0  0  0  0  0  0  0
   22.0498   51.3185   46.2826 N   0  0  0  0  0  4  0  0  0  0  0  0
   22.8769   50.7355   49.3026 C   0  0  0  0  0  0  0  0  0  0  0  0
   22.5463   52.1483   48.7870 C   0  0  0  0  0  0  0  0  0  0  0  0
   23.9173   52.0195   48.0567 C   0  0  0  0  0  0  0  0  0  0  0  0
   24.6886   48.5188   48.8512 C   0  0  0  0  0  0  0  0  0  0  0  0
   25.7558   47.6548   48.9038 C   0  0  0  0  0  0  0  0  0  0  0  0
   25.6994   46.2749   49.9693 Cl  0  0  0  0  0  0  0  0  0  0  0  0
   26.8918   47.8272   48.1418 C   0  0  0  0  0  0  0  0  0  0  0  0
   28.5506   50.4532   46.2140 C   0  0  0  0  0  0  0  0  0  0  0  0
   29.6482   50.6856   45.4136 C   0  0  0  0  0  0  0  0  0  0  0  0
   33.1909   49.5032   44.6024 N   0  0  0  0  0  0  0  0  0  0  0  0
   33.1243   48.2153   45.2703 C   0  0  0  0  0  0  0  0  0  0  0  0
   34.4380   47.8424   45.9023 C   0  0  0  0  0  0  0  0  0  0  0  0
   31.7704   51.3494   43.4317 O   0  0  0  0  0  0  0  0  0  0  0  0
  1  2  2  0
  2  3  1  0
  2 23  1  1
  2 26  2  0
  3 22  2  0
  3  4  1  0
  4  5  2  0
  5  6  1  0
  6  7  1  0
  6 21  2  0
  7 20  1  0
  7  8  2  0
  8  9  1  0
 10  9  1  1
  9 17  2  0
 10 16  1  0
 10 11  1  0
 14 10  1  6
 11 12  1  0
 11 13  2  3
 15 14  1  6
 16 15  1  1
 17 18  1  0
 18 19  1  0
 18 20  2  0
 21 22  1  0
 24 23  1  6
 25 24  1  1
M  CHG  1  13   1
M  END
$$$$
