
     RDKit          3D

 26 28  0  0  0  0  0  0  0  0999 V2000
   28.0164   46.6148   71.7908 O   0  0  0  0  0  0  0  0  0  0  0  0
   29.1634   45.7171   71.4849 S   0  0  1  0  0  6  0  0  0  0  0  0
   28.5756   44.3412   70.5889 C   0  0  0  0  0  0  0  0  0  0  0  0
   27.8706   44.5110   69.4062 C   0  0  0  0  0  0  0  0  0  0  0  0
   27.3882   43.4604   68.6682 C   0  0  0  0  0  0  0  0  0  0  0  0
   27.5980   42.1718   69.0956 C   0  0  0  0  0  0  0  0  0  0  0  0
   27.0769   41.0493   68.2974 C   0  0  0  0  0  0  0  0  0  0  0  0
   27.0029   41.1866   66.9014 C   0  0  0  0  0  0  0  0  0  0  0  0
   26.5374   40.2023   66.0977 C   0  0  0  0  0  0  0  0  0  0  0  0
   26.4469   40.3288   64.6366 C   0  0  1  0  0  0  0  0  0  0  0  0
   27.7587   40.4167   63.9528 C   0  0  0  0  0  0  0  0  0  0  0  0
   28.3782   41.6877   63.7982 N   0  0  0  0  0  0  0  0  0  0  0  0
   28.3374   39.3836   63.5067 N   0  0  0  0  0  4  0  0  0  0  0  0
   25.4251   39.4114   63.9898 C   0  0  0  0  0  0  0  0  0  0  0  0
   25.2756   40.5255   62.9374 C   0  0  0  0  0  0  0  0  0  0  0  0
   25.5752   41.4701   64.1405 C   0  0  0  0  0  0  0  0  0  0  0  0
   26.1241   39.0193   66.7139 C   0  0  0  0  0  0  0  0  0  0  0  0
   26.1966   38.8845   68.0795 C   0  0  0  0  0  0  0  0  0  0  0  0
   25.6754   37.3990   68.8306 Cl  0  0  0  0  0  0  0  0  0  0  0  0
   26.6698   39.8844   68.9024 C   0  0  0  0  0  0  0  0  0  0  0  0
   28.2925   41.9785   70.2618 C   0  0  0  0  0  0  0  0  0  0  0  0
   28.7743   43.0389   70.9984 C   0  0  0  0  0  0  0  0  0  0  0  0
   30.4090   46.5486   70.6510 N   0  0  0  0  0  0  0  0  0  0  0  0
   31.6198   45.7532   70.5504 C   0  0  0  0  0  0  0  0  0  0  0  0
   32.4986   46.2098   69.4174 C   0  0  0  0  0  0  0  0  0  0  0  0
   29.7423   45.2007   72.7807 O   0  0  0  0  0  0  0  0  0  0  0  0
  1  2  2  0
  2  3  1  0
  2 23  1  6
  2 26  2  0
  3 22  2  0
  3  4  1  0
  4  5  2  0
  5  6  1  0
  6  7  1  0
  6 21  2  0
  7 20  1  0
  7  8  2  0
  8  9  1  0
 10  9  1  1
  9 17  2  0
 10 16  1  0
 10 11  1  0
 14 10  1  6
 11 12  1  0
 11 13  2  3
 15 14  1  6
 16 15  1  1
 17 18  1  0
 18 19  1  0
 18 20  2  0
 21 22  1  0
 24 23  1  6
 25 24  1  1
M  CHG  1  13   1
M  END
$$$$
