
     RDKit          3D

 26 28  0  0  0  0  0  0  0  0999 V2000
   33.8501   42.6927   63.2144 O   0  0  0  0  0  0  0  0  0  0  0  0
   32.8169   43.4247   63.9967 S   0  0  1  0  0  6  0  0  0  0  0  0
   31.6481   42.2768   64.5945 C   0  0  0  0  0  0  0  0  0  0  0  0
   32.0387   41.2203   65.4044 C   0  0  0  0  0  0  0  0  0  0  0  0
   31.1567   40.2928   65.8972 C   0  0  0  0  0  0  0  0  0  0  0  0
   29.8210   40.3900   65.5913 C   0  0  0  0  0  0  0  0  0  0  0  0
   28.8804   39.3901   66.1245 C   0  0  0  0  0  0  0  0  0  0  0  0
   29.1436   38.8118   67.3774 C   0  0  0  0  0  0  0  0  0  0  0  0
   28.3289   37.8873   67.9369 C   0  0  0  0  0  0  0  0  0  0  0  0
   28.5899   37.2669   69.2431 C   0  0  1  0  0  0  0  0  0  0  0  0
   29.7723   36.3740   69.2654 C   0  0  0  0  0  0  0  0  0  0  0  0
   29.6128   35.0008   68.9302 N   0  0  0  0  0  0  0  0  0  0  0  0
   30.9192   36.8103   69.5743 N   0  0  0  0  0  4  0  0  0  0  0  0
   28.4526   38.2106   70.4241 C   0  0  0  0  0  0  0  0  0  0  0  0
   28.0195   36.9608   71.2126 C   0  0  0  0  0  0  0  0  0  0  0  0
   27.4154   36.5152   69.8465 C   0  0  0  0  0  0  0  0  0  0  0  0
   27.1929   37.5185   67.2134 C   0  0  0  0  0  0  0  0  0  0  0  0
   26.9350   38.0842   65.9880 C   0  0  0  0  0  0  0  0  0  0  0  0
   25.5107   37.6103   65.0994 Cl  0  0  0  0  0  0  0  0  0  0  0  0
   27.7620   39.0261   65.4137 C   0  0  0  0  0  0  0  0  0  0  0  0
   29.4106   41.4259   64.7925 C   0  0  0  0  0  0  0  0  0  0  0  0
   30.3025   42.3543   64.3007 C   0  0  0  0  0  0  0  0  0  0  0  0
   33.5194   44.3495   65.2573 N   0  0  0  0  0  0  0  0  0  0  0  0
   34.5921   43.6326   65.9238 C   0  0  0  0  0  0  0  0  0  0  0  0
   34.2040   43.2079   67.3142 C   0  0  0  0  0  0  0  0  0  0  0  0
   32.0885   44.3769   63.0782 O   0  0  0  0  0  0  0  0  0  0  0  0
  1  2  2  0
  2  3  1  0
  2 23  1  1
  2 26  2  0
  3 22  2  0
  3  4  1  0
  4  5  2  0
  5  6  1  0
  6  7  1  0
  6 21  2  0
  7 20  1  0
  7  8  2  0
  8  9  1  0
 10  9  1  6
  9 17  2  0
 10 16  1  0
 10 11  1  0
 14 10  1  6
 11 12  1  0
 11 13  2  3
 15 14  1  6
 16 15  1  1
 17 18  1  0
 18 19  1  0
 18 20  2  0
 21 22  1  0
 24 23  1  6
 25 24  1  1
M  CHG  1  13   1
M  END
$$$$
