
     RDKit          3D

 20 22  0  0  0  0  0  0  0  0999 V2000
    7.1319  -18.0250   14.1292 N   0  0  0  0  0  4  0  0  0  0  0  0
    7.4507  -17.1441   13.2544 C   0  0  0  0  0  0  0  0  0  0  0  0
    8.7854  -16.9928   12.7860 N   0  0  0  0  0  0  0  0  0  0  0  0
    6.4674  -16.1930   12.6351 C   0  0  2  0  0  0  0  0  0  0  0  0
    5.2739  -16.9852   12.1539 C   0  0  0  0  0  0  0  0  0  0  0  0
    6.1249  -17.3089   10.9142 C   0  0  0  0  0  0  0  0  0  0  0  0
    6.7806  -15.9450   11.1812 C   0  0  0  0  0  0  0  0  0  0  0  0
    6.1972  -15.0160   13.4498 C   0  0  0  0  0  0  0  0  0  0  0  0
    7.1428  -14.0846   13.7458 C   0  0  0  0  0  0  0  0  0  0  0  0
    6.8675  -12.9632   14.5285 C   0  0  0  0  0  0  0  0  0  0  0  0
    8.1451  -11.8099   14.8628 Cl  0  0  0  0  0  0  0  0  0  0  0  0
    5.5971  -12.7958   15.0160 C   0  0  0  0  0  0  0  0  0  0  0  0
    4.6088  -13.7195   14.7377 C   0  0  0  0  0  0  0  0  0  0  0  0
    3.2929  -13.4992   15.2721 C   0  0  0  0  0  0  0  0  0  0  0  0
    3.1257  -13.1750   16.5904 C   0  0  0  0  0  0  0  0  0  0  0  0
    1.8405  -12.9603   17.1130 C   0  0  0  0  0  0  0  0  0  0  0  0
    0.7442  -13.0781   16.2891 C   0  0  0  0  0  0  0  0  0  0  0  0
    0.9217  -13.4032   14.9700 C   0  0  0  0  0  0  0  0  0  0  0  0
    2.1953  -13.6129   14.4652 C   0  0  0  0  0  0  0  0  0  0  0  0
    4.9249  -14.8321   13.9482 C   0  0  0  0  0  0  0  0  0  0  0  0
  1  2  2  3
  2  3  1  0
  2  4  1  0
  7  4  1  6
  4  5  1  0
  4  8  1  1
  5  6  1  1
  6  7  1  1
  8 20  1  0
  8  9  2  0
  9 10  1  0
 10 11  1  0
 10 12  2  0
 12 13  1  0
 13 14  1  0
 13 20  2  0
 14 19  1  0
 14 15  2  0
 15 16  1  0
 16 17  2  0
 17 18  1  0
 18 19  2  0
M  CHG  1   1   1
M  END
$$$$
