
     RDKit          3D

 20 22  0  0  0  0  0  0  0  0999 V2000
   10.4759  -14.0045    7.1611 N   0  0  0  0  0  4  0  0  0  0  0  0
   10.8855  -15.2146    7.0569 C   0  0  0  0  0  0  0  0  0  0  0  0
   12.1437  -15.5391    6.4778 N   0  0  0  0  0  0  0  0  0  0  0  0
   10.0984  -16.4028    7.5295 C   0  0  2  0  0  0  0  0  0  0  0  0
    9.3573  -16.0157    8.7882 C   0  0  0  0  0  0  0  0  0  0  0  0
   10.6823  -16.2847    9.5217 C   0  0  0  0  0  0  0  0  0  0  0  0
   10.9332  -17.3062    8.4014 C   0  0  0  0  0  0  0  0  0  0  0  0
    9.3258  -17.0503    6.4778 C   0  0  0  0  0  0  0  0  0  0  0  0
    9.7765  -18.1277    5.7811 C   0  0  0  0  0  0  0  0  0  0  0  0
    9.0240  -18.7354    4.7759 C   0  0  0  0  0  0  0  0  0  0  0  0
    9.6798  -20.1216    3.9260 Cl  0  0  0  0  0  0  0  0  0  0  0  0
    7.7855  -18.2266    4.4813 C   0  0  0  0  0  0  0  0  0  0  0  0
    7.2921  -17.1335    5.1662 C   0  0  0  0  0  0  0  0  0  0  0  0
    5.9884  -16.6375    4.8200 C   0  0  0  0  0  0  0  0  0  0  0  0
    4.8938  -17.4543    4.8947 C   0  0  0  0  0  0  0  0  0  0  0  0
    3.6202  -16.9704    4.5560 C   0  0  0  0  0  0  0  0  0  0  0  0
    3.4771  -15.6642    4.1465 C   0  0  0  0  0  0  0  0  0  0  0  0
    4.5794  -14.8536    4.0748 C   0  0  0  0  0  0  0  0  0  0  0  0
    5.8318  -15.3422    4.4116 C   0  0  0  0  0  0  0  0  0  0  0  0
    8.0781  -16.5515    6.1685 C   0  0  0  0  0  0  0  0  0  0  0  0
  1  2  2  3
  2  3  1  0
  2  4  1  0
  7  4  1  6
  4  5  1  0
  4  8  1  6
  5  6  1  1
  6  7  1  1
  8 20  1  0
  8  9  2  0
  9 10  1  0
 10 11  1  0
 10 12  2  0
 12 13  1  0
 13 14  1  0
 13 20  2  0
 14 19  1  0
 14 15  2  0
 15 16  1  0
 16 17  2  0
 17 18  1  0
 18 19  2  0
M  CHG  1   1   1
M  END
$$$$
