
     RDKit          3D

 20 22  0  0  0  0  0  0  0  0999 V2000
    9.1453  -13.4512    9.1677 N   0  0  0  0  0  4  0  0  0  0  0  0
    8.1992  -13.4260   10.0320 C   0  0  0  0  0  0  0  0  0  0  0  0
    7.8251  -12.2315   10.7082 N   0  0  0  0  0  0  0  0  0  0  0  0
    7.3923  -14.6323   10.4175 C   0  0  2  0  0  0  0  0  0  0  0  0
    7.2356  -14.6425   11.9205 C   0  0  0  0  0  0  0  0  0  0  0  0
    8.6435  -15.2609   11.9549 C   0  0  0  0  0  0  0  0  0  0  0  0
    8.2660  -15.8495   10.5864 C   0  0  0  0  0  0  0  0  0  0  0  0
    6.1835  -14.8074    9.6236 C   0  0  0  0  0  0  0  0  0  0  0  0
    5.0115  -14.1783    9.9066 C   0  0  0  0  0  0  0  0  0  0  0  0
    3.8624  -14.3578    9.1364 C   0  0  0  0  0  0  0  0  0  0  0  0
    2.3915  -13.5082    9.5706 Cl  0  0  0  0  0  0  0  0  0  0  0  0
    3.9187  -15.1992    8.0554 C   0  0  0  0  0  0  0  0  0  0  0  0
    5.0904  -15.8565    7.7350 C   0  0  0  0  0  0  0  0  0  0  0  0
    5.0982  -16.7281    6.5922 C   0  0  0  0  0  0  0  0  0  0  0  0
    5.6956  -17.9565    6.6616 C   0  0  0  0  0  0  0  0  0  0  0  0
    5.7041  -18.8079    5.5453 C   0  0  0  0  0  0  0  0  0  0  0  0
    5.1057  -18.3991    4.3752 C   0  0  0  0  0  0  0  0  0  0  0  0
    4.5099  -17.1668    4.3153 C   0  0  0  0  0  0  0  0  0  0  0  0
    4.5077  -16.3348    5.4236 C   0  0  0  0  0  0  0  0  0  0  0  0
    6.2224  -15.6500    8.5330 C   0  0  0  0  0  0  0  0  0  0  0  0
  1  2  2  3
  2  3  1  0
  2  4  1  0
  7  4  1  6
  4  5  1  0
  4  8  1  6
  5  6  1  1
  6  7  1  1
  8 20  1  0
  8  9  2  0
  9 10  1  0
 10 11  1  0
 10 12  2  0
 12 13  1  0
 13 14  1  0
 13 20  2  0
 14 19  1  0
 14 15  2  0
 15 16  1  0
 16 17  2  0
 17 18  1  0
 18 19  2  0
M  CHG  1   1   1
M  END
$$$$
