
     RDKit          3D

 20 22  0  0  0  0  0  0  0  0999 V2000
    5.0935  -14.9827   12.9801 N   0  0  0  0  0  4  0  0  0  0  0  0
    6.0524  -15.3820   12.2291 C   0  0  0  0  0  0  0  0  0  0  0  0
    6.7502  -16.5968   12.4764 N   0  0  0  0  0  0  0  0  0  0  0  0
    6.5349  -14.6270   11.0241 C   0  0  2  0  0  0  0  0  0  0  0  0
    8.0408  -14.5239   11.0957 C   0  0  0  0  0  0  0  0  0  0  0  0
    7.8064  -13.3438   12.0539 C   0  0  0  0  0  0  0  0  0  0  0  0
    6.5076  -13.1379   11.2587 C   0  0  0  0  0  0  0  0  0  0  0  0
    5.9614  -15.0961    9.7698 C   0  0  0  0  0  0  0  0  0  0  0  0
    4.6621  -14.8910    9.4246 C   0  0  0  0  0  0  0  0  0  0  0  0
    4.1283  -15.3479    8.2195 C   0  0  0  0  0  0  0  0  0  0  0  0
    2.4419  -15.0408    7.8516 Cl  0  0  0  0  0  0  0  0  0  0  0  0
    4.9448  -16.0281    7.3532 C   0  0  0  0  0  0  0  0  0  0  0  0
    6.2701  -16.2566    7.6673 C   0  0  0  0  0  0  0  0  0  0  0  0
    7.0849  -16.9747    6.7259 C   0  0  0  0  0  0  0  0  0  0  0  0
    8.2679  -16.4457    6.2883 C   0  0  0  0  0  0  0  0  0  0  0  0
    9.0637  -17.1466    5.3682 C   0  0  0  0  0  0  0  0  0  0  0  0
    8.6464  -18.3741    4.9064 C   0  0  0  0  0  0  0  0  0  0  0  0
    7.4599  -18.8958    5.3506 C   0  0  0  0  0  0  0  0  0  0  0  0
    6.6825  -18.1949    6.2589 C   0  0  0  0  0  0  0  0  0  0  0  0
    6.7683  -15.7819    8.8869 C   0  0  0  0  0  0  0  0  0  0  0  0
  1  2  2  3
  2  3  1  0
  2  4  1  0
  7  4  1  6
  4  5  1  0
  4  8  1  6
  5  6  1  1
  6  7  1  1
  8 20  1  0
  8  9  2  0
  9 10  1  0
 10 11  1  0
 10 12  2  0
 12 13  1  0
 13 14  1  0
 13 20  2  0
 14 19  1  0
 14 15  2  0
 15 16  1  0
 16 17  2  0
 17 18  1  0
 18 19  2  0
M  CHG  1   1   1
M  END
$$$$
