
     RDKit          3D

 20 22  0  0  0  0  0  0  0  0999 V2000
    7.2742  -18.1689   10.5930 N   0  0  0  0  0  4  0  0  0  0  0  0
    7.5215  -17.1490   11.3287 C   0  0  0  0  0  0  0  0  0  0  0  0
    7.9499  -17.2775   12.6792 N   0  0  0  0  0  0  0  0  0  0  0  0
    7.3922  -15.7301   10.8543 C   0  0  2  0  0  0  0  0  0  0  0  0
    7.8987  -15.6531    9.4327 C   0  0  0  0  0  0  0  0  0  0  0  0
    9.3050  -15.5835   10.0519 C   0  0  0  0  0  0  0  0  0  0  0  0
    8.5971  -14.9085   11.2372 C   0  0  0  0  0  0  0  0  0  0  0  0
    6.0900  -15.1369   11.1272 C   0  0  0  0  0  0  0  0  0  0  0  0
    5.1766  -14.8711   10.1554 C   0  0  0  0  0  0  0  0  0  0  0  0
    3.9339  -14.3017   10.4338 C   0  0  0  0  0  0  0  0  0  0  0  0
    2.8137  -13.9915    9.1213 Cl  0  0  0  0  0  0  0  0  0  0  0  0
    3.6242  -13.9999   11.7349 C   0  0  0  0  0  0  0  0  0  0  0  0
    4.5250  -14.2545   12.7504 C   0  0  0  0  0  0  0  0  0  0  0  0
    4.1532  -13.9198   14.0978 C   0  0  0  0  0  0  0  0  0  0  0  0
    2.9163  -14.2516   14.5782 C   0  0  0  0  0  0  0  0  0  0  0  0
    2.5526  -13.9243   15.8941 C   0  0  0  0  0  0  0  0  0  0  0  0
    3.4504  -13.2649   16.7025 C   0  0  0  0  0  0  0  0  0  0  0  0
    4.6871  -12.9368   16.2124 C   0  0  0  0  0  0  0  0  0  0  0  0
    5.0351  -13.2650   14.9117 C   0  0  0  0  0  0  0  0  0  0  0  0
    5.7622  -14.8270   12.4301 C   0  0  0  0  0  0  0  0  0  0  0  0
  1  2  2  3
  2  3  1  0
  2  4  1  0
  7  4  1  6
  4  5  1  0
  4  8  1  6
  5  6  1  1
  6  7  1  1
  8 20  1  0
  8  9  2  0
  9 10  1  0
 10 11  1  0
 10 12  2  0
 12 13  1  0
 13 14  1  0
 13 20  2  0
 14 19  1  0
 14 15  2  0
 15 16  1  0
 16 17  2  0
 17 18  1  0
 18 19  2  0
M  CHG  1   1   1
M  END
$$$$
