
     RDKit          3D

 20 22  0  0  0  0  0  0  0  0999 V2000
    8.5868  -12.9309   10.3010 N   0  0  0  0  0  4  0  0  0  0  0  0
    8.4475  -14.0585   10.8941 C   0  0  0  0  0  0  0  0  0  0  0  0
    9.4320  -14.5708   11.7842 N   0  0  0  0  0  0  0  0  0  0  0  0
    7.2493  -14.9470   10.7212 C   0  0  2  0  0  0  0  0  0  0  0  0
    7.7316  -16.3475   10.4218 C   0  0  0  0  0  0  0  0  0  0  0  0
    7.8969  -15.8641    8.9710 C   0  0  0  0  0  0  0  0  0  0  0  0
    6.7369  -14.9125    9.3036 C   0  0  0  0  0  0  0  0  0  0  0  0
    6.2533  -14.7996   11.7741 C   0  0  0  0  0  0  0  0  0  0  0  0
    6.2704  -15.5312   12.9202 C   0  0  0  0  0  0  0  0  0  0  0  0
    5.3081  -15.3783   13.9185 C   0  0  0  0  0  0  0  0  0  0  0  0
    5.4035  -16.3622   15.3666 Cl  0  0  0  0  0  0  0  0  0  0  0  0
    4.3098  -14.4566   13.7355 C   0  0  0  0  0  0  0  0  0  0  0  0
    4.2577  -13.6941   12.5851 C   0  0  0  0  0  0  0  0  0  0  0  0
    3.1912  -12.7415   12.4405 C   0  0  0  0  0  0  0  0  0  0  0  0
    2.5881  -12.5553   11.2271 C   0  0  0  0  0  0  0  0  0  0  0  0
    1.5468  -11.6245   11.0853 C   0  0  0  0  0  0  0  0  0  0  0  0
    1.1333  -10.8966   12.1778 C   0  0  0  0  0  0  0  0  0  0  0  0
    1.7435  -11.0902   13.3892 C   0  0  0  0  0  0  0  0  0  0  0  0
    2.7705  -12.0118   13.5173 C   0  0  0  0  0  0  0  0  0  0  0  0
    5.2423  -13.8772   11.6064 C   0  0  0  0  0  0  0  0  0  0  0  0
  1  2  2  3
  2  3  1  0
  2  4  1  0
  7  4  1  6
  4  5  1  0
  4  8  1  1
  5  6  1  1
  6  7  1  1
  8 20  1  0
  8  9  2  0
  9 10  1  0
 10 11  1  0
 10 12  2  0
 12 13  1  0
 13 14  1  0
 13 20  2  0
 14 19  1  0
 14 15  2  0
 15 16  1  0
 16 17  2  0
 17 18  1  0
 18 19  2  0
M  CHG  1   1   1
M  END
$$$$
