
     RDKit          3D

 20 22  0  0  0  0  0  0  0  0999 V2000
   18.3497  -12.8673  -23.7474 N   0  0  0  0  0  4  0  0  0  0  0  0
   18.6274  -13.5966  -22.7306 C   0  0  0  0  0  0  0  0  0  0  0  0
   18.8868  -14.9903  -22.8486 N   0  0  0  0  0  0  0  0  0  0  0  0
   18.7117  -13.0695  -21.3270 C   0  0  2  0  0  0  0  0  0  0  0  0
   17.4034  -13.3583  -20.6282 C   0  0  0  0  0  0  0  0  0  0  0  0
   16.8717  -12.1009  -21.3369 C   0  0  0  0  0  0  0  0  0  0  0  0
   18.3270  -11.6131  -21.2606 C   0  0  0  0  0  0  0  0  0  0  0  0
   19.9334  -13.4495  -20.6304 C   0  0  0  0  0  0  0  0  0  0  0  0
   19.9609  -14.3642  -19.6245 C   0  0  0  0  0  0  0  0  0  0  0  0
   21.1398  -14.7161  -18.9669 C   0  0  0  0  0  0  0  0  0  0  0  0
   21.0875  -15.9053  -17.6797 Cl  0  0  0  0  0  0  0  0  0  0  0  0
   22.3120  -14.1171  -19.3502 C   0  0  0  0  0  0  0  0  0  0  0  0
   22.3256  -13.1832  -20.3676 C   0  0  0  0  0  0  0  0  0  0  0  0
   23.5798  -12.5834  -20.7322 C   0  0  0  0  0  0  0  0  0  0  0  0
   23.7050  -11.2229  -20.7953 C   0  0  0  0  0  0  0  0  0  0  0  0
   24.9298  -10.6367  -21.1521 C   0  0  0  0  0  0  0  0  0  0  0  0
   26.0092  -11.4408  -21.4395 C   0  0  0  0  0  0  0  0  0  0  0  0
   25.8740  -12.8027  -21.3736 C   0  0  0  0  0  0  0  0  0  0  0  0
   24.6601  -13.3702  -21.0202 C   0  0  0  0  0  0  0  0  0  0  0  0
   21.1212  -12.8568  -21.0031 C   0  0  0  0  0  0  0  0  0  0  0  0
  1  2  2  3
  2  3  1  0
  2  4  1  0
  7  4  1  6
  4  5  1  0
  4  8  1  1
  5  6  1  1
  6  7  1  1
  8 20  1  0
  8  9  2  0
  9 10  1  0
 10 11  1  0
 10 12  2  0
 12 13  1  0
 13 14  1  0
 13 20  2  0
 14 19  1  0
 14 15  2  0
 15 16  1  0
 16 17  2  0
 17 18  1  0
 18 19  2  0
M  CHG  1   1   1
M  END
$$$$
