
     RDKit          3D

 20 22  0  0  0  0  0  0  0  0999 V2000
    3.4340  -13.9289    9.3037 N   0  0  0  0  0  4  0  0  0  0  0  0
    4.2072  -14.9257    9.0769 C   0  0  0  0  0  0  0  0  0  0  0  0
    4.0279  -15.7810    7.9543 N   0  0  0  0  0  0  0  0  0  0  0  0
    5.3698  -15.2930    9.9535 C   0  0  2  0  0  0  0  0  0  0  0  0
    5.0851  -16.6344   10.5884 C   0  0  0  0  0  0  0  0  0  0  0  0
    4.2400  -15.8513   11.6075 C   0  0  0  0  0  0  0  0  0  0  0  0
    5.2267  -14.7052   11.3346 C   0  0  0  0  0  0  0  0  0  0  0  0
    6.6656  -15.1260    9.3092 C   0  0  0  0  0  0  0  0  0  0  0  0
    7.1969  -16.0459    8.4601 C   0  0  0  0  0  0  0  0  0  0  0  0
    8.4401  -15.8709    7.8520 C   0  0  0  0  0  0  0  0  0  0  0  0
    9.0523  -17.1066    6.7693 Cl  0  0  0  0  0  0  0  0  0  0  0  0
    9.1504  -14.7296    8.1214 C   0  0  0  0  0  0  0  0  0  0  0  0
    8.6451  -13.7715    8.9783 C   0  0  0  0  0  0  0  0  0  0  0  0
    9.4282  -12.5926    9.2285 C   0  0  0  0  0  0  0  0  0  0  0  0
    9.4616  -11.5758    8.3144 C   0  0  0  0  0  0  0  0  0  0  0  0
   10.2269  -10.4243    8.5582 C   0  0  0  0  0  0  0  0  0  0  0  0
   10.9470  -10.3226    9.7267 C   0  0  0  0  0  0  0  0  0  0  0  0
   10.9074  -11.3464   10.6364 C   0  0  0  0  0  0  0  0  0  0  0  0
   10.1483  -12.4784   10.3850 C   0  0  0  0  0  0  0  0  0  0  0  0
    7.3934  -13.9841    9.5690 C   0  0  0  0  0  0  0  0  0  0  0  0
  1  2  2  3
  2  3  1  0
  2  4  1  0
  7  4  1  6
  4  5  1  0
  4  8  1  6
  5  6  1  1
  6  7  1  1
  8 20  1  0
  8  9  2  0
  9 10  1  0
 10 11  1  0
 10 12  2  0
 12 13  1  0
 13 14  1  0
 13 20  2  0
 14 19  1  0
 14 15  2  0
 15 16  1  0
 16 17  2  0
 17 18  1  0
 18 19  2  0
M  CHG  1   1   1
M  END
$$$$
