
     RDKit          3D

 20 22  0  0  0  0  0  0  0  0999 V2000
    9.5546   -6.4442   -2.3844 N   0  0  0  0  0  4  0  0  0  0  0  0
   10.0916   -5.9622   -3.4437 C   0  0  0  0  0  0  0  0  0  0  0  0
    9.5386   -4.8456   -4.1301 N   0  0  0  0  0  0  0  0  0  0  0  0
   11.3440   -6.5105   -4.0648 C   0  0  2  0  0  0  0  0  0  0  0  0
   12.3861   -6.6669   -2.9818 C   0  0  0  0  0  0  0  0  0  0  0  0
   12.6505   -5.1632   -3.1695 C   0  0  0  0  0  0  0  0  0  0  0  0
   12.2113   -5.4099   -4.6213 C   0  0  0  0  0  0  0  0  0  0  0  0
   11.1140   -7.6567   -4.9341 C   0  0  0  0  0  0  0  0  0  0  0  0
   11.1815   -7.5855   -6.2904 C   0  0  0  0  0  0  0  0  0  0  0  0
   10.9575   -8.6929   -7.1087 C   0  0  0  0  0  0  0  0  0  0  0  0
   11.0641   -8.5148   -8.8496 Cl  0  0  0  0  0  0  0  0  0  0  0  0
   10.6588   -9.8956   -6.5222 C   0  0  0  0  0  0  0  0  0  0  0  0
   10.5810  -10.0089   -5.1479 C   0  0  0  0  0  0  0  0  0  0  0  0
   10.2645  -11.2913   -4.5815 C   0  0  0  0  0  0  0  0  0  0  0  0
    9.5302  -12.2006   -5.2920 C   0  0  0  0  0  0  0  0  0  0  0  0
    9.2203  -13.4531   -4.7389 C   0  0  0  0  0  0  0  0  0  0  0  0
    9.6607  -13.7638   -3.4724 C   0  0  0  0  0  0  0  0  0  0  0  0
   10.3956  -12.8464   -2.7684 C   0  0  0  0  0  0  0  0  0  0  0  0
   10.6955  -11.6130   -3.3247 C   0  0  0  0  0  0  0  0  0  0  0  0
   10.8125   -8.8739   -4.3610 C   0  0  0  0  0  0  0  0  0  0  0  0
  1  2  2  3
  2  3  1  0
  2  4  1  0
  7  4  1  6
  4  5  1  0
  4  8  1  6
  5  6  1  1
  6  7  1  1
  8 20  1  0
  8  9  2  0
  9 10  1  0
 10 11  1  0
 10 12  2  0
 12 13  1  0
 13 14  1  0
 13 20  2  0
 14 19  1  0
 14 15  2  0
 15 16  1  0
 16 17  2  0
 17 18  1  0
 18 19  2  0
M  CHG  1   1   1
M  END
$$$$
