
     RDKit          3D

 20 22  0  0  0  0  0  0  0  0999 V2000
   13.4147   -3.6787   -5.1645 N   0  0  0  0  0  4  0  0  0  0  0  0
   12.6656   -3.4517   -4.1495 C   0  0  0  0  0  0  0  0  0  0  0  0
   13.1859   -2.9534   -2.9228 N   0  0  0  0  0  0  0  0  0  0  0  0
   11.1813   -3.6790   -4.1437 C   0  0  2  0  0  0  0  0  0  0  0  0
   10.5861   -2.9825   -5.3454 C   0  0  0  0  0  0  0  0  0  0  0  0
   10.6469   -1.7008   -4.4971 C   0  0  0  0  0  0  0  0  0  0  0  0
   10.4690   -2.6505   -3.3022 C   0  0  0  0  0  0  0  0  0  0  0  0
   10.8018   -5.0688   -3.9276 C   0  0  0  0  0  0  0  0  0  0  0  0
   10.1697   -5.4999   -2.8033 C   0  0  0  0  0  0  0  0  0  0  0  0
    9.8140   -6.8351   -2.6117 C   0  0  0  0  0  0  0  0  0  0  0  0
    9.0007   -7.3072   -1.1319 Cl  0  0  0  0  0  0  0  0  0  0  0  0
   10.1133   -7.7440   -3.5935 C   0  0  0  0  0  0  0  0  0  0  0  0
   10.7546   -7.3457   -4.7500 C   0  0  0  0  0  0  0  0  0  0  0  0
   11.0465   -8.3365   -5.7493 C   0  0  0  0  0  0  0  0  0  0  0  0
   11.5836   -9.5429   -5.3929 C   0  0  0  0  0  0  0  0  0  0  0  0
   11.8694  -10.5108   -6.3688 C   0  0  0  0  0  0  0  0  0  0  0  0
   11.6057  -10.2393   -7.6921 C   0  0  0  0  0  0  0  0  0  0  0  0
   11.0678   -9.0280   -8.0394 C   0  0  0  0  0  0  0  0  0  0  0  0
   10.7896   -8.0801   -7.0673 C   0  0  0  0  0  0  0  0  0  0  0  0
   11.0952   -5.9962   -4.9047 C   0  0  0  0  0  0  0  0  0  0  0  0
  1  2  2  3
  2  3  1  0
  2  4  1  0
  7  4  1  6
  4  5  1  0
  4  8  1  1
  5  6  1  1
  6  7  1  1
  8 20  1  0
  8  9  2  0
  9 10  1  0
 10 11  1  0
 10 12  2  0
 12 13  1  0
 13 14  1  0
 13 20  2  0
 14 19  1  0
 14 15  2  0
 15 16  1  0
 16 17  2  0
 17 18  1  0
 18 19  2  0
M  CHG  1   1   1
M  END
$$$$
