
     RDKit          3D

 20 22  0  0  0  0  0  0  0  0999 V2000
    8.4092  -16.3917   10.4805 N   0  0  0  0  0  4  0  0  0  0  0  0
    8.1137  -15.1577   10.2999 C   0  0  0  0  0  0  0  0  0  0  0  0
    8.8539  -14.3250    9.4152 N   0  0  0  0  0  0  0  0  0  0  0  0
    6.9712  -14.4667   10.9872 C   0  0  2  0  0  0  0  0  0  0  0  0
    7.3938  -13.0530   11.3133 C   0  0  0  0  0  0  0  0  0  0  0  0
    8.0944  -13.6606   12.5405 C   0  0  0  0  0  0  0  0  0  0  0  0
    6.9854  -14.7223   12.4731 C   0  0  0  0  0  0  0  0  0  0  0  0
    5.6915  -14.6371   10.3124 C   0  0  0  0  0  0  0  0  0  0  0  0
    4.6562  -13.7666   10.4526 C   0  0  0  0  0  0  0  0  0  0  0  0
    3.4364  -13.9452    9.7997 C   0  0  0  0  0  0  0  0  0  0  0  0
    2.1525  -12.7747   10.0352 Cl  0  0  0  0  0  0  0  0  0  0  0  0
    3.2776  -15.0385    8.9878 C   0  0  0  0  0  0  0  0  0  0  0  0
    4.3053  -15.9456    8.8194 C   0  0  0  0  0  0  0  0  0  0  0  0
    4.0893  -17.0756    7.9579 C   0  0  0  0  0  0  0  0  0  0  0  0
    4.3521  -18.3435    8.3988 C   0  0  0  0  0  0  0  0  0  0  0  0
    4.1418  -19.4474    7.5574 C   0  0  0  0  0  0  0  0  0  0  0  0
    3.6679  -19.2476    6.2808 C   0  0  0  0  0  0  0  0  0  0  0  0
    3.4077  -17.9739    5.8481 C   0  0  0  0  0  0  0  0  0  0  0  0
    3.6190  -16.8916    6.6876 C   0  0  0  0  0  0  0  0  0  0  0  0
    5.5146  -15.7312    9.4922 C   0  0  0  0  0  0  0  0  0  0  0  0
  1  2  2  3
  2  3  1  0
  2  4  1  0
  7  4  1  6
  4  5  1  0
  4  8  1  6
  5  6  1  1
  6  7  1  1
  8 20  1  0
  8  9  2  0
  9 10  1  0
 10 11  1  0
 10 12  2  0
 12 13  1  0
 13 14  1  0
 13 20  2  0
 14 19  1  0
 14 15  2  0
 15 16  1  0
 16 17  2  0
 17 18  1  0
 18 19  2  0
M  CHG  1   1   1
M  END
$$$$
