
     RDKit          3D

 20 22  0  0  0  0  0  0  0  0999 V2000
    8.8304  -12.3494   11.8927 N   0  0  0  0  0  4  0  0  0  0  0  0
    8.6575  -12.7185   10.6775 C   0  0  0  0  0  0  0  0  0  0  0  0
    8.1002  -11.8518    9.6966 N   0  0  0  0  0  0  0  0  0  0  0  0
    9.0208  -14.0814   10.1624 C   0  0  2  0  0  0  0  0  0  0  0  0
   10.1656  -14.6163   10.9911 C   0  0  0  0  0  0  0  0  0  0  0  0
   11.0738  -13.7586   10.0937 C   0  0  0  0  0  0  0  0  0  0  0  0
   10.0006  -13.9961    9.0197 C   0  0  0  0  0  0  0  0  0  0  0  0
    7.8749  -14.9599    9.9694 C   0  0  0  0  0  0  0  0  0  0  0  0
    6.9845  -15.2469   10.9563 C   0  0  0  0  0  0  0  0  0  0  0  0
    5.8926  -16.0914   10.7549 C   0  0  0  0  0  0  0  0  0  0  0  0
    4.7915  -16.4091   12.0818 Cl  0  0  0  0  0  0  0  0  0  0  0  0
    5.7123  -16.6512    9.5164 C   0  0  0  0  0  0  0  0  0  0  0  0
    6.5947  -16.3844    8.4880 C   0  0  0  0  0  0  0  0  0  0  0  0
    6.3625  -16.9958    7.2081 C   0  0  0  0  0  0  0  0  0  0  0  0
    5.8071  -16.2755    6.1866 C   0  0  0  0  0  0  0  0  0  0  0  0
    5.5796  -16.8725    4.9364 C   0  0  0  0  0  0  0  0  0  0  0  0
    5.9193  -18.1921    4.7423 C   0  0  0  0  0  0  0  0  0  0  0  0
    6.4750  -18.9055    5.7717 C   0  0  0  0  0  0  0  0  0  0  0  0
    6.6951  -18.3056    7.0015 C   0  0  0  0  0  0  0  0  0  0  0  0
    7.6786  -15.5314    8.7301 C   0  0  0  0  0  0  0  0  0  0  0  0
  1  2  2  3
  2  3  1  0
  2  4  1  0
  7  4  1  6
  4  5  1  0
  4  8  1  6
  5  6  1  1
  6  7  1  1
  8 20  1  0
  8  9  2  0
  9 10  1  0
 10 11  1  0
 10 12  2  0
 12 13  1  0
 13 14  1  0
 13 20  2  0
 14 19  1  0
 14 15  2  0
 15 16  1  0
 16 17  2  0
 17 18  1  0
 18 19  2  0
M  CHG  1   1   1
M  END
$$$$
