
     RDKit          3D

 20 22  0  0  0  0  0  0  0  0999 V2000
   11.0200   -3.2987   -2.7217 N   0  0  0  0  0  4  0  0  0  0  0  0
   11.6847   -3.8677   -3.6583 C   0  0  0  0  0  0  0  0  0  0  0  0
   11.9950   -3.2020   -4.8766 N   0  0  0  0  0  0  0  0  0  0  0  0
   12.2037   -5.2743   -3.5738 C   0  0  2  0  0  0  0  0  0  0  0  0
   12.9960   -5.4156   -2.2948 C   0  0  0  0  0  0  0  0  0  0  0  0
   14.1558   -4.7663   -3.0688 C   0  0  0  0  0  0  0  0  0  0  0  0
   13.5155   -5.4230   -4.3019 C   0  0  0  0  0  0  0  0  0  0  0  0
   11.1940   -6.2891   -3.8438 C   0  0  0  0  0  0  0  0  0  0  0  0
   10.0148   -6.3612   -3.1702 C   0  0  0  0  0  0  0  0  0  0  0  0
    9.0587   -7.3404   -3.4406 C   0  0  0  0  0  0  0  0  0  0  0  0
    7.5637   -7.3624   -2.5251 Cl  0  0  0  0  0  0  0  0  0  0  0  0
    9.3192   -8.2623   -4.4214 C   0  0  0  0  0  0  0  0  0  0  0  0
   10.5051   -8.2227   -5.1280 C   0  0  0  0  0  0  0  0  0  0  0  0
   10.7311   -9.2115   -6.1463 C   0  0  0  0  0  0  0  0  0  0  0  0
   11.3702   -8.8764   -7.3081 C   0  0  0  0  0  0  0  0  0  0  0  0
   11.5906   -9.8419   -8.3032 C   0  0  0  0  0  0  0  0  0  0  0  0
   11.1585  -11.1334   -8.1037 C   0  0  0  0  0  0  0  0  0  0  0  0
   10.5192  -11.4595   -6.9365 C   0  0  0  0  0  0  0  0  0  0  0  0
   10.3072  -10.4980   -5.9612 C   0  0  0  0  0  0  0  0  0  0  0  0
   11.4396   -7.2241   -4.8268 C   0  0  0  0  0  0  0  0  0  0  0  0
  1  2  2  3
  2  3  1  0
  2  4  1  0
  7  4  1  6
  4  5  1  0
  4  8  1  6
  5  6  1  1
  6  7  1  1
  8 20  1  0
  8  9  2  0
  9 10  1  0
 10 11  1  0
 10 12  2  0
 12 13  1  0
 13 14  1  0
 13 20  2  0
 14 19  1  0
 14 15  2  0
 15 16  1  0
 16 17  2  0
 17 18  1  0
 18 19  2  0
M  CHG  1   1   1
M  END
$$$$
