
     RDKit          3D

 20 22  0  0  0  0  0  0  0  0999 V2000
    8.8972  -12.0859    9.4275 N   0  0  0  0  0  4  0  0  0  0  0  0
    8.7960  -13.3582    9.5452 C   0  0  0  0  0  0  0  0  0  0  0  0
    9.2956  -14.2506    8.5564 N   0  0  0  0  0  0  0  0  0  0  0  0
    8.1535  -14.0363   10.7209 C   0  0  2  0  0  0  0  0  0  0  0  0
    8.4703  -13.2390   11.9648 C   0  0  0  0  0  0  0  0  0  0  0  0
    9.8222  -13.9728   11.9599 C   0  0  0  0  0  0  0  0  0  0  0  0
    9.0416  -15.1141   11.2892 C   0  0  0  0  0  0  0  0  0  0  0  0
    6.7588  -14.3951   10.5007 C   0  0  0  0  0  0  0  0  0  0  0  0
    6.1802  -15.4974   11.0478 C   0  0  0  0  0  0  0  0  0  0  0  0
    4.8430  -15.8271   10.8260 C   0  0  0  0  0  0  0  0  0  0  0  0
    4.1748  -17.2673   11.5699 Cl  0  0  0  0  0  0  0  0  0  0  0  0
    4.0865  -15.0090   10.0272 C   0  0  0  0  0  0  0  0  0  0  0  0
    4.6375  -13.8801    9.4531 C   0  0  0  0  0  0  0  0  0  0  0  0
    3.8031  -13.0548    8.6235 C   0  0  0  0  0  0  0  0  0  0  0  0
    4.3453  -12.0320    7.8951 C   0  0  0  0  0  0  0  0  0  0  0  0
    3.5305  -11.2252    7.0850 C   0  0  0  0  0  0  0  0  0  0  0  0
    2.1772  -11.4690    7.0268 C   0  0  0  0  0  0  0  0  0  0  0  0
    1.6432  -12.4959    7.7601 C   0  0  0  0  0  0  0  0  0  0  0  0
    2.4573  -13.2858    8.5563 C   0  0  0  0  0  0  0  0  0  0  0  0
    5.9836  -13.5833    9.7000 C   0  0  0  0  0  0  0  0  0  0  0  0
  1  2  2  3
  2  3  1  0
  2  4  1  0
  7  4  1  6
  4  5  1  0
  4  8  1  6
  5  6  1  1
  6  7  1  1
  8 20  1  0
  8  9  2  0
  9 10  1  0
 10 11  1  0
 10 12  2  0
 12 13  1  0
 13 14  1  0
 13 20  2  0
 14 19  1  0
 14 15  2  0
 15 16  1  0
 16 17  2  0
 17 18  1  0
 18 19  2  0
M  CHG  1   1   1
M  END
$$$$
