
     RDKit          3D

 20 22  0  0  0  0  0  0  0  0999 V2000
    7.2490  -16.7413   11.9328 N   0  0  0  0  0  4  0  0  0  0  0  0
    6.9659  -16.6740   10.6845 C   0  0  0  0  0  0  0  0  0  0  0  0
    6.6450  -17.8295    9.9192 N   0  0  0  0  0  0  0  0  0  0  0  0
    6.9383  -15.3903    9.9058 C   0  0  2  0  0  0  0  0  0  0  0  0
    7.8368  -15.5428    8.7004 C   0  0  0  0  0  0  0  0  0  0  0  0
    8.9969  -15.2290    9.6605 C   0  0  0  0  0  0  0  0  0  0  0  0
    7.9523  -14.4053   10.4299 C   0  0  0  0  0  0  0  0  0  0  0  0
    5.5959  -14.8756    9.6712 C   0  0  0  0  0  0  0  0  0  0  0  0
    4.9698  -14.9555    8.4667 C   0  0  0  0  0  0  0  0  0  0  0  0
    3.6838  -14.4565    8.2586 C   0  0  0  0  0  0  0  0  0  0  0  0
    2.9487  -14.6005    6.6735 Cl  0  0  0  0  0  0  0  0  0  0  0  0
    3.0292  -13.8644    9.3078 C   0  0  0  0  0  0  0  0  0  0  0  0
    3.6311  -13.7638   10.5467 C   0  0  0  0  0  0  0  0  0  0  0  0
    2.9036  -13.1342   11.6144 C   0  0  0  0  0  0  0  0  0  0  0  0
    2.9711  -13.6317   12.8867 C   0  0  0  0  0  0  0  0  0  0  0  0
    2.2601  -13.0174   13.9298 C   0  0  0  0  0  0  0  0  0  0  0  0
    1.4910  -11.9070   13.6654 C   0  0  0  0  0  0  0  0  0  0  0  0
    1.4296  -11.4159   12.3877 C   0  0  0  0  0  0  0  0  0  0  0  0
    2.1358  -12.0307   11.3659 C   0  0  0  0  0  0  0  0  0  0  0  0
    4.9231  -14.2770   10.7153 C   0  0  0  0  0  0  0  0  0  0  0  0
  1  2  2  3
  2  3  1  0
  2  4  1  0
  7  4  1  6
  4  5  1  0
  4  8  1  6
  5  6  1  1
  6  7  1  1
  8 20  1  0
  8  9  2  0
  9 10  1  0
 10 11  1  0
 10 12  2  0
 12 13  1  0
 13 14  1  0
 13 20  2  0
 14 19  1  0
 14 15  2  0
 15 16  1  0
 16 17  2  0
 17 18  1  0
 18 19  2  0
M  CHG  1   1   1
M  END
$$$$
