
     RDKit          3D

 20 22  0  0  0  0  0  0  0  0999 V2000
    9.5693  -16.1382   11.7904 N   0  0  0  0  0  4  0  0  0  0  0  0
   10.0015  -15.7461   10.6492 C   0  0  0  0  0  0  0  0  0  0  0  0
   11.2976  -16.0892   10.1735 N   0  0  0  0  0  0  0  0  0  0  0  0
    9.2006  -14.8990    9.7027 C   0  0  2  0  0  0  0  0  0  0  0  0
   10.1222  -13.8766    9.0791 C   0  0  0  0  0  0  0  0  0  0  0  0
    9.9218  -13.0669   10.3714 C   0  0  0  0  0  0  0  0  0  0  0  0
    8.5434  -13.7449   10.4164 C   0  0  0  0  0  0  0  0  0  0  0  0
    8.3555  -15.6682    8.7992 C   0  0  0  0  0  0  0  0  0  0  0  0
    8.7216  -16.8724    8.2844 C   0  0  0  0  0  0  0  0  0  0  0  0
    7.9005  -17.5959    7.4193 C   0  0  0  0  0  0  0  0  0  0  0  0
    8.4491  -19.1418    6.8004 Cl  0  0  0  0  0  0  0  0  0  0  0  0
    6.6805  -17.0722    7.0771 C   0  0  0  0  0  0  0  0  0  0  0  0
    6.2722  -15.8519    7.5790 C   0  0  0  0  0  0  0  0  0  0  0  0
    4.9845  -15.3457    7.1900 C   0  0  0  0  0  0  0  0  0  0  0  0
    4.0746  -14.9648    8.1375 C   0  0  0  0  0  0  0  0  0  0  0  0
    2.8164  -14.4708    7.7580 C   0  0  0  0  0  0  0  0  0  0  0  0
    2.5010  -14.3711    6.4220 C   0  0  0  0  0  0  0  0  0  0  0  0
    3.4190  -14.7552    5.4802 C   0  0  0  0  0  0  0  0  0  0  0  0
    4.6580  -15.2414    5.8666 C   0  0  0  0  0  0  0  0  0  0  0  0
    7.1253  -15.1563    8.4446 C   0  0  0  0  0  0  0  0  0  0  0  0
  1  2  2  3
  2  3  1  0
  2  4  1  0
  7  4  1  6
  4  5  1  0
  4  8  1  6
  5  6  1  1
  6  7  1  1
  8 20  1  0
  8  9  2  0
  9 10  1  0
 10 11  1  0
 10 12  2  0
 12 13  1  0
 13 14  1  0
 13 20  2  0
 14 19  1  0
 14 15  2  0
 15 16  1  0
 16 17  2  0
 17 18  1  0
 18 19  2  0
M  CHG  1   1   1
M  END
$$$$
