
     RDKit          3D

 20 22  0  0  0  0  0  0  0  0999 V2000
   -1.9055  -12.7127   -8.8445 N   0  0  0  0  0  4  0  0  0  0  0  0
   -3.0447  -13.2452   -8.5970 C   0  0  0  0  0  0  0  0  0  0  0  0
   -3.4727  -14.4437   -9.2328 N   0  0  0  0  0  0  0  0  0  0  0  0
   -4.0353  -12.6754   -7.6228 C   0  0  2  0  0  0  0  0  0  0  0  0
   -5.4009  -12.6828   -8.2699 C   0  0  0  0  0  0  0  0  0  0  0  0
   -4.9587  -11.3847   -8.9664 C   0  0  0  0  0  0  0  0  0  0  0  0
   -4.0953  -11.1715   -7.7132 C   0  0  0  0  0  0  0  0  0  0  0  0
   -3.9329  -13.2407   -6.2841 C   0  0  0  0  0  0  0  0  0  0  0  0
   -4.2007  -14.5446   -6.0060 C   0  0  0  0  0  0  0  0  0  0  0  0
   -4.0985  -15.0699   -4.7177 C   0  0  0  0  0  0  0  0  0  0  0  0
   -4.4621  -16.7632   -4.4453 Cl  0  0  0  0  0  0  0  0  0  0  0  0
   -3.7141  -14.2398   -3.6964 C   0  0  0  0  0  0  0  0  0  0  0  0
   -3.4334  -12.9094   -3.9382 C   0  0  0  0  0  0  0  0  0  0  0  0
   -3.0346  -12.0802   -2.8340 C   0  0  0  0  0  0  0  0  0  0  0  0
   -3.4372  -10.7748   -2.7668 C   0  0  0  0  0  0  0  0  0  0  0  0
   -3.0473   -9.9643   -1.6888 C   0  0  0  0  0  0  0  0  0  0  0  0
   -2.2544  -10.4916   -0.6950 C   0  0  0  0  0  0  0  0  0  0  0  0
   -1.8561  -11.8004   -0.7710 C   0  0  0  0  0  0  0  0  0  0  0  0
   -2.2471  -12.5910   -1.8401 C   0  0  0  0  0  0  0  0  0  0  0  0
   -3.5476  -12.4200   -5.2453 C   0  0  0  0  0  0  0  0  0  0  0  0
  1  2  2  3
  2  3  1  0
  2  4  1  0
  7  4  1  6
  4  5  1  0
  4  8  1  1
  5  6  1  1
  6  7  1  1
  8 20  1  0
  8  9  2  0
  9 10  1  0
 10 11  1  0
 10 12  2  0
 12 13  1  0
 13 14  1  0
 13 20  2  0
 14 19  1  0
 14 15  2  0
 15 16  1  0
 16 17  2  0
 17 18  1  0
 18 19  2  0
M  CHG  1   1   1
M  END
$$$$
