
     RDKit          3D

 20 22  0  0  0  0  0  0  0  0999 V2000
    7.0983  -19.0231   12.8402 N   0  0  0  0  0  4  0  0  0  0  0  0
    6.8301  -18.1712   11.9209 C   0  0  0  0  0  0  0  0  0  0  0  0
    6.2080  -18.5491   10.6986 N   0  0  0  0  0  0  0  0  0  0  0  0
    7.1341  -16.7048   12.0315 C   0  0  2  0  0  0  0  0  0  0  0  0
    7.8682  -16.2731   10.7831 C   0  0  0  0  0  0  0  0  0  0  0  0
    9.1281  -16.8421   11.4576 C   0  0  0  0  0  0  0  0  0  0  0  0
    8.4257  -16.4633   12.7710 C   0  0  0  0  0  0  0  0  0  0  0  0
    5.9922  -15.8985   12.4413 C   0  0  0  0  0  0  0  0  0  0  0  0
    4.9520  -15.6095   11.6144 C   0  0  0  0  0  0  0  0  0  0  0  0
    3.8661  -14.8348   12.0227 C   0  0  0  0  0  0  0  0  0  0  0  0
    2.5655  -14.5093   10.8929 Cl  0  0  0  0  0  0  0  0  0  0  0  0
    3.8488  -14.3481   13.3043 C   0  0  0  0  0  0  0  0  0  0  0  0
    4.8864  -14.6194   14.1745 C   0  0  0  0  0  0  0  0  0  0  0  0
    4.8217  -14.0860   15.5076 C   0  0  0  0  0  0  0  0  0  0  0  0
    5.8683  -13.3689   16.0187 C   0  0  0  0  0  0  0  0  0  0  0  0
    5.8057  -12.8483   17.3210 C   0  0  0  0  0  0  0  0  0  0  0  0
    4.6812  -13.0637   18.0849 C   0  0  0  0  0  0  0  0  0  0  0  0
    3.6380  -13.7832   17.5643 C   0  0  0  0  0  0  0  0  0  0  0  0
    3.7109  -14.2924   16.2773 C   0  0  0  0  0  0  0  0  0  0  0  0
    5.9586  -15.4010   13.7268 C   0  0  0  0  0  0  0  0  0  0  0  0
  1  2  2  3
  2  3  1  0
  2  4  1  0
  7  4  1  6
  4  5  1  0
  4  8  1  1
  5  6  1  1
  6  7  1  1
  8 20  1  0
  8  9  2  0
  9 10  1  0
 10 11  1  0
 10 12  2  0
 12 13  1  0
 13 14  1  0
 13 20  2  0
 14 19  1  0
 14 15  2  0
 15 16  1  0
 16 17  2  0
 17 18  1  0
 18 19  2  0
M  CHG  1   1   1
M  END
$$$$
