
     RDKit          3D

 20 22  0  0  0  0  0  0  0  0999 V2000
    5.1751  -11.1022   13.2766 N   0  0  0  0  0  4  0  0  0  0  0  0
    6.1939  -11.8531   13.4789 C   0  0  0  0  0  0  0  0  0  0  0  0
    6.8322  -11.9351   14.7477 N   0  0  0  0  0  0  0  0  0  0  0  0
    6.8139  -12.7173   12.4189 C   0  0  2  0  0  0  0  0  0  0  0  0
    8.3022  -12.7892   12.6705 C   0  0  0  0  0  0  0  0  0  0  0  0
    8.3787  -11.4271   11.9602 C   0  0  0  0  0  0  0  0  0  0  0  0
    7.1481  -11.9205   11.1833 C   0  0  0  0  0  0  0  0  0  0  0  0
    6.1155  -13.9782   12.2077 C   0  0  0  0  0  0  0  0  0  0  0  0
    5.9420  -14.9044   13.1882 C   0  0  0  0  0  0  0  0  0  0  0  0
    5.2713  -16.1077   12.9689 C   0  0  0  0  0  0  0  0  0  0  0  0
    5.0913  -17.2479   14.2885 Cl  0  0  0  0  0  0  0  0  0  0  0  0
    4.7696  -16.3639   11.7189 C   0  0  0  0  0  0  0  0  0  0  0  0
    4.9251  -15.4485   10.6965 C   0  0  0  0  0  0  0  0  0  0  0  0
    4.3812  -15.7638    9.4041 C   0  0  0  0  0  0  0  0  0  0  0  0
    5.1263  -16.4546    8.4884 C   0  0  0  0  0  0  0  0  0  0  0  0
    4.5956  -16.7622    7.2255 C   0  0  0  0  0  0  0  0  0  0  0  0
    3.3162  -16.3637    6.9114 C   0  0  0  0  0  0  0  0  0  0  0  0
    2.5775  -15.6722    7.8352 C   0  0  0  0  0  0  0  0  0  0  0  0
    3.1118  -15.3742    9.0787 C   0  0  0  0  0  0  0  0  0  0  0  0
    5.6046  -14.2520   10.9567 C   0  0  0  0  0  0  0  0  0  0  0  0
  1  2  2  3
  2  3  1  0
  2  4  1  0
  7  4  1  6
  4  5  1  0
  4  8  1  6
  5  6  1  1
  6  7  1  1
  8 20  1  0
  8  9  2  0
  9 10  1  0
 10 11  1  0
 10 12  2  0
 12 13  1  0
 13 14  1  0
 13 20  2  0
 14 19  1  0
 14 15  2  0
 15 16  1  0
 16 17  2  0
 17 18  1  0
 18 19  2  0
M  CHG  1   1   1
M  END
$$$$
