
     RDKit          3D

 20 22  0  0  0  0  0  0  0  0999 V2000
   10.6506   -5.2766   -5.9864 N   0  0  0  0  0  4  0  0  0  0  0  0
   10.1482   -6.4540   -5.9211 C   0  0  0  0  0  0  0  0  0  0  0  0
    8.8791   -6.7661   -6.4830 N   0  0  0  0  0  0  0  0  0  0  0  0
   10.8328   -7.6149   -5.2590 C   0  0  2  0  0  0  0  0  0  0  0  0
   10.1462   -7.8865   -3.9405 C   0  0  0  0  0  0  0  0  0  0  0  0
   11.0029   -6.7379   -3.3813 C   0  0  0  0  0  0  0  0  0  0  0  0
   12.0223   -7.1652   -4.4490 C   0  0  0  0  0  0  0  0  0  0  0  0
   11.0439   -8.7532   -6.1434 C   0  0  0  0  0  0  0  0  0  0  0  0
   11.9882   -8.7683   -7.1218 C   0  0  0  0  0  0  0  0  0  0  0  0
   12.1768   -9.8666   -7.9611 C   0  0  0  0  0  0  0  0  0  0  0  0
   13.4176   -9.8039   -9.1981 Cl  0  0  0  0  0  0  0  0  0  0  0  0
   11.3803  -10.9696   -7.7916 C   0  0  0  0  0  0  0  0  0  0  0  0
   10.4099  -10.9931   -6.8092 C   0  0  0  0  0  0  0  0  0  0  0  0
    9.6004  -12.1727   -6.6718 C   0  0  0  0  0  0  0  0  0  0  0  0
    9.2150  -12.6085   -5.4339 C   0  0  0  0  0  0  0  0  0  0  0  0
    8.4248  -13.7611   -5.2993 C   0  0  0  0  0  0  0  0  0  0  0  0
    8.0378  -14.4541   -6.4237 C   0  0  0  0  0  0  0  0  0  0  0  0
    8.4288  -14.0098   -7.6595 C   0  0  0  0  0  0  0  0  0  0  0  0
    9.2088  -12.8706   -7.7802 C   0  0  0  0  0  0  0  0  0  0  0  0
   10.2517   -9.8707   -5.9869 C   0  0  0  0  0  0  0  0  0  0  0  0
  1  2  2  3
  2  3  1  0
  2  4  1  0
  7  4  1  6
  4  5  1  0
  4  8  1  6
  5  6  1  1
  6  7  1  1
  8 20  1  0
  8  9  2  0
  9 10  1  0
 10 11  1  0
 10 12  2  0
 12 13  1  0
 13 14  1  0
 13 20  2  0
 14 19  1  0
 14 15  2  0
 15 16  1  0
 16 17  2  0
 17 18  1  0
 18 19  2  0
M  CHG  1   1   1
M  END
$$$$
