
     RDKit          3D

 20 22  0  0  0  0  0  0  0  0999 V2000
    6.1710  -12.8639   10.1118 N   0  0  0  0  0  4  0  0  0  0  0  0
    6.6250  -14.0560    9.9867 C   0  0  0  0  0  0  0  0  0  0  0  0
    8.0143  -14.3488   10.0774 N   0  0  0  0  0  0  0  0  0  0  0  0
    5.7562  -15.2553    9.7386 C   0  0  2  0  0  0  0  0  0  0  0  0
    4.5176  -15.1342   10.5957 C   0  0  0  0  0  0  0  0  0  0  0  0
    5.3862  -15.6859   11.7390 C   0  0  0  0  0  0  0  0  0  0  0  0
    6.1491  -16.4132   10.6207 C   0  0  0  0  0  0  0  0  0  0  0  0
    5.5586  -15.5542    8.3265 C   0  0  0  0  0  0  0  0  0  0  0  0
    4.5003  -15.0895    7.6100 C   0  0  0  0  0  0  0  0  0  0  0  0
    4.3255  -15.3860    6.2582 C   0  0  0  0  0  0  0  0  0  0  0  0
    2.9322  -14.7460    5.4079 Cl  0  0  0  0  0  0  0  0  0  0  0  0
    5.2554  -16.1746    5.6311 C   0  0  0  0  0  0  0  0  0  0  0  0
    6.3442  -16.6660    6.3242 C   0  0  0  0  0  0  0  0  0  0  0  0
    7.2909  -17.4884    5.6220 C   0  0  0  0  0  0  0  0  0  0  0  0
    8.6060  -17.1202    5.5452 C   0  0  0  0  0  0  0  0  0  0  0  0
    9.5309  -17.9229    4.8588 C   0  0  0  0  0  0  0  0  0  0  0  0
    9.1066  -19.0876    4.2606 C   0  0  0  0  0  0  0  0  0  0  0  0
    7.7873  -19.4481    4.3429 C   0  0  0  0  0  0  0  0  0  0  0  0
    6.8832  -18.6478    5.0232 C   0  0  0  0  0  0  0  0  0  0  0  0
    6.4842  -16.3458    7.6803 C   0  0  0  0  0  0  0  0  0  0  0  0
  1  2  2  3
  2  3  1  0
  2  4  1  0
  7  4  1  6
  4  5  1  0
  4  8  1  6
  5  6  1  1
  6  7  1  1
  8 20  1  0
  8  9  2  0
  9 10  1  0
 10 11  1  0
 10 12  2  0
 12 13  1  0
 13 14  1  0
 13 20  2  0
 14 19  1  0
 14 15  2  0
 15 16  1  0
 16 17  2  0
 17 18  1  0
 18 19  2  0
M  CHG  1   1   1
M  END
$$$$
