
     RDKit          3D

 20 22  0  0  0  0  0  0  0  0999 V2000
    3.2298  -14.4857    8.0481 N   0  0  0  0  0  4  0  0  0  0  0  0
    4.4234  -14.6832    8.4714 C   0  0  0  0  0  0  0  0  0  0  0  0
    5.3240  -13.6105    8.7202 N   0  0  0  0  0  0  0  0  0  0  0  0
    4.9925  -16.0445    8.7501 C   0  0  2  0  0  0  0  0  0  0  0  0
    3.9196  -16.8877    9.3994 C   0  0  0  0  0  0  0  0  0  0  0  0
    4.3080  -16.1804   10.7089 C   0  0  0  0  0  0  0  0  0  0  0  0
    5.7059  -16.0829   10.0779 C   0  0  0  0  0  0  0  0  0  0  0  0
    5.6993  -16.6278    7.6177 C   0  0  0  0  0  0  0  0  0  0  0  0
    5.0789  -17.3515    6.6478 C   0  0  0  0  0  0  0  0  0  0  0  0
    5.7710  -17.9041    5.5700 C   0  0  0  0  0  0  0  0  0  0  0  0
    4.8942  -18.8242    4.3623 Cl  0  0  0  0  0  0  0  0  0  0  0  0
    7.1256  -17.7094    5.4874 C   0  0  0  0  0  0  0  0  0  0  0  0
    7.7923  -16.9802    6.4524 C   0  0  0  0  0  0  0  0  0  0  0  0
    9.2127  -16.8045    6.3210 C   0  0  0  0  0  0  0  0  0  0  0  0
    9.7799  -15.5752    6.5156 C   0  0  0  0  0  0  0  0  0  0  0  0
   11.1673  -15.4031    6.3867 C   0  0  0  0  0  0  0  0  0  0  0  0
   11.9580  -16.4818    6.0620 C   0  0  0  0  0  0  0  0  0  0  0  0
   11.3807  -17.7093    5.8690 C   0  0  0  0  0  0  0  0  0  0  0  0
   10.0100  -17.8674    5.9990 C   0  0  0  0  0  0  0  0  0  0  0  0
    7.0619  -16.4417    7.5190 C   0  0  0  0  0  0  0  0  0  0  0  0
  1  2  2  3
  2  3  1  0
  2  4  1  0
  7  4  1  6
  4  5  1  0
  4  8  1  6
  5  6  1  1
  6  7  1  1
  8 20  1  0
  8  9  2  0
  9 10  1  0
 10 11  1  0
 10 12  2  0
 12 13  1  0
 13 14  1  0
 13 20  2  0
 14 19  1  0
 14 15  2  0
 15 16  1  0
 16 17  2  0
 17 18  1  0
 18 19  2  0
M  CHG  1   1   1
M  END
$$$$
