
     RDKit          3D

  9  8  0  0  0  0  0  0  0  0999 V2000
   20.4057  -17.4673    1.0326 O   0  0  0  0  0  0  0  0  0  0  0  0
   19.2268  -17.2445    0.6518 C   0  0  0  0  0  0  0  0  0  0  0  0
   18.2061  -17.5611    1.5689 O   0  0  0  0  0  1  0  0  0  0  0  0
   18.8974  -16.6836   -0.6635 C   0  0  0  0  0  0  0  0  0  0  0  0
   20.0367  -16.8596   -1.6460 C   0  0  0  0  0  0  0  0  0  0  0  0
   19.8614  -18.4299   -2.4878 S   0  0  1  0  0  6  0  0  0  0  0  0
   20.8632  -19.4299   -1.9502 O   0  0  0  0  0  0  0  0  0  0  0  0
   18.4843  -18.9154   -2.2387 O   0  0  0  0  0  0  0  0  0  0  0  0
   20.1486  -18.2524   -4.1093 O   0  0  0  0  0  1  0  0  0  0  0  0
  1  2  2  0
  2  3  1  0
  4  2  1  6
  5  4  1  6
  5  6  1  0
  6  7  2  0
  6  8  2  0
  6  9  1  6
M  CHG  2   3  -1   9  -1
M  END
$$$$
