
     RDKit          3D

  9  8  0  0  0  0  0  0  0  0999 V2000
   17.0234   -8.3885   -3.7853 O   0  0  0  0  0  0  0  0  0  0  0  0
   18.0954   -7.7875   -4.0572 C   0  0  0  0  0  0  0  0  0  0  0  0
   17.9854   -6.6750   -4.9137 O   0  0  0  0  0  1  0  0  0  0  0  0
   19.4025   -8.1915   -3.5267 C   0  0  0  0  0  0  0  0  0  0  0  0
   19.4040   -8.2233   -2.0123 C   0  0  0  0  0  0  0  0  0  0  0  0
   18.7616   -6.6755   -1.3824 S   0  0  1  0  0  6  0  0  0  0  0  0
   19.5100   -5.5084   -1.9913 O   0  0  0  0  0  0  0  0  0  0  0  0
   17.3302   -6.6042   -1.7568 O   0  0  0  0  0  0  0  0  0  0  0  0
   18.9547   -6.5946    0.2605 O   0  0  0  0  0  1  0  0  0  0  0  0
  1  2  2  0
  2  3  1  0
  4  2  1  6
  5  4  1  6
  5  6  1  0
  6  7  2  0
  6  8  2  0
  6  9  1  1
M  CHG  2   3  -1   9  -1
M  END
$$$$
