
     RDKit          3D

  9  8  0  0  0  0  0  0  0  0999 V2000
    3.9431    5.6179    5.4031 O   0  0  0  0  0  0  0  0  0  0  0  0
    3.4598    5.8102    6.5493 C   0  0  0  0  0  0  0  0  0  0  0  0
    4.3294    5.5940    7.6358 O   0  0  0  0  0  1  0  0  0  0  0  0
    2.0756    6.2396    6.7784 C   0  0  0  0  0  0  0  0  0  0  0  0
    1.3434    6.4804    5.4745 C   0  0  0  0  0  0  0  0  0  0  0  0
   -0.2833    7.1449    5.8174 S   0  0  1  0  0  6  0  0  0  0  0  0
   -1.0772    7.2805    4.5352 O   0  0  0  0  0  0  0  0  0  0  0  0
   -0.9646    6.1998    6.7322 O   0  0  0  0  0  0  0  0  0  0  0  0
   -0.1619    8.6510    6.4955 O   0  0  0  0  0  1  0  0  0  0  0  0
  1  2  2  0
  2  3  1  0
  4  2  1  6
  5  4  1  6
  5  6  1  0
  6  7  2  0
  6  8  2  0
  6  9  1  1
M  CHG  2   3  -1   9  -1
M  END
$$$$
