
     RDKit          3D

  9  8  0  0  0  0  0  0  0  0999 V2000
   21.3403  -33.3083   -8.7207 O   0  0  0  0  0  0  0  0  0  0  0  0
   21.7462  -33.8657   -9.7738 C   0  0  0  0  0  0  0  0  0  0  0  0
   21.0641  -35.0351  -10.1619 O   0  0  0  0  0  1  0  0  0  0  0  0
   22.8602  -33.3524  -10.5792 C   0  0  0  0  0  0  0  0  0  0  0  0
   23.1119  -31.8831  -10.3105 C   0  0  0  0  0  0  0  0  0  0  0  0
   24.8289  -31.6438   -9.8634 S   0  0  1  0  0  6  0  0  0  0  0  0
   25.1245  -32.3091   -8.5358 O   0  0  0  0  0  0  0  0  0  0  0  0
   25.6544  -32.2593  -10.9283 O   0  0  0  0  0  0  0  0  0  0  0  0
   25.1656  -30.0301   -9.7034 O   0  0  0  0  0  1  0  0  0  0  0  0
  1  2  2  0
  2  3  1  0
  4  2  1  6
  5  4  1  6
  5  6  1  0
  6  7  2  0
  6  8  2  0
  6  9  1  1
M  CHG  2   3  -1   9  -1
M  END
$$$$
