
     RDKit          3D

  9  8  0  0  0  0  0  0  0  0999 V2000
   15.7887   -8.8109   -6.4049 O   0  0  0  0  0  0  0  0  0  0  0  0
   15.9327   -8.7533   -5.1557 C   0  0  0  0  0  0  0  0  0  0  0  0
   16.6120   -7.6242   -4.6588 O   0  0  0  0  0  1  0  0  0  0  0  0
   15.4306   -9.7828   -4.2385 C   0  0  0  0  0  0  0  0  0  0  0  0
   15.3944  -11.1464   -4.8969 C   0  0  0  0  0  0  0  0  0  0  0  0
   17.0663  -11.6910   -5.2337 S   0  0  1  0  0  6  0  0  0  0  0  0
   17.9096  -10.5312   -5.7199 O   0  0  0  0  0  0  0  0  0  0  0  0
   17.6236  -12.2211   -3.9678 O   0  0  0  0  0  0  0  0  0  0  0  0
   17.0703  -12.8475   -6.4194 O   0  0  0  0  0  1  0  0  0  0  0  0
  1  2  2  0
  2  3  1  0
  4  2  1  6
  5  4  1  6
  5  6  1  0
  6  7  2  0
  6  8  2  0
  6  9  1  6
M  CHG  2   3  -1   9  -1
M  END
$$$$
