
     RDKit          3D

  9  8  0  0  0  0  0  0  0  0999 V2000
   20.2000  -16.4238   -2.7084 O   0  0  0  0  0  0  0  0  0  0  0  0
   20.8240  -16.0205   -1.6923 C   0  0  0  0  0  0  0  0  0  0  0  0
   22.2269  -16.1340   -1.7376 O   0  0  0  0  0  1  0  0  0  0  0  0
   20.1611  -15.4543   -0.5119 C   0  0  0  0  0  0  0  0  0  0  0  0
   19.0006  -16.3152   -0.0576 C   0  0  0  0  0  0  0  0  0  0  0  0
   19.2402  -16.7851    1.6533 S   0  0  1  0  0  6  0  0  0  0  0  0
   19.1894  -15.5635    2.5465 O   0  0  0  0  0  0  0  0  0  0  0  0
   18.1469  -17.7170    2.0146 O   0  0  0  0  0  0  0  0  0  0  0  0
   20.7227  -17.4951    1.8562 O   0  0  0  0  0  1  0  0  0  0  0  0
  1  2  2  0
  2  3  1  0
  4  2  1  6
  5  4  1  6
  5  6  1  0
  6  7  2  0
  6  8  2  0
  6  9  1  6
M  CHG  2   3  -1   9  -1
M  END
$$$$
