
     RDKit          3D

  9  8  0  0  0  0  0  0  0  0999 V2000
    6.1633  -16.7035   -4.0994 O   0  0  0  0  0  0  0  0  0  0  0  0
    6.6096  -17.7825   -3.6293 C   0  0  0  0  0  0  0  0  0  0  0  0
    8.0112  -17.9154   -3.5981 O   0  0  0  0  0  1  0  0  0  0  0  0
    5.7488  -18.8605   -3.1290 C   0  0  0  0  0  0  0  0  0  0  0  0
    4.3078  -18.4109   -3.0044 C   0  0  0  0  0  0  0  0  0  0  0  0
    4.0063  -17.8285   -1.3385 S   0  0  1  0  0  6  0  0  0  0  0  0
    4.2032  -18.9532   -0.3441 O   0  0  0  0  0  0  0  0  0  0  0  0
    4.9758  -16.7422   -1.0662 O   0  0  0  0  0  0  0  0  0  0  0  0
    2.4473  -17.2903   -1.1870 O   0  0  0  0  0  1  0  0  0  0  0  0
  1  2  2  0
  2  3  1  0
  4  2  1  6
  5  4  1  6
  5  6  1  0
  6  7  2  0
  6  8  2  0
  6  9  1  6
M  CHG  2   3  -1   9  -1
M  END
$$$$
