
     RDKit          3D

  9  8  0  0  0  0  0  0  0  0999 V2000
   10.9455  -13.3694   -4.6917 O   0  0  0  0  0  0  0  0  0  0  0  0
   11.4823  -12.4472   -5.3594 C   0  0  0  0  0  0  0  0  0  0  0  0
   11.7459  -11.2496   -4.6668 O   0  0  0  0  0  1  0  0  0  0  0  0
   11.8317  -12.5783   -6.7785 C   0  0  0  0  0  0  0  0  0  0  0  0
   11.9545  -14.0306   -7.1906 C   0  0  0  0  0  0  0  0  0  0  0  0
   13.5654  -14.6513   -6.7164 S   0  0  1  0  0  6  0  0  0  0  0  0
   13.6975  -16.1124   -7.0910 O   0  0  0  0  0  0  0  0  0  0  0  0
   14.5798  -13.8530   -7.4430 O   0  0  0  0  0  0  0  0  0  0  0  0
   13.7720  -14.5317   -5.0774 O   0  0  0  0  0  1  0  0  0  0  0  0
  1  2  2  0
  2  3  1  0
  4  2  1  6
  5  4  1  6
  5  6  1  0
  6  7  2  0
  6  8  2  0
  6  9  1  1
M  CHG  2   3  -1   9  -1
M  END
$$$$
