
     RDKit          3D

  9  8  0  0  0  0  0  0  0  0999 V2000
   23.0950  -22.4327   -4.0425 O   0  0  0  0  0  0  0  0  0  0  0  0
   22.2670  -21.4915   -4.1568 C   0  0  0  0  0  0  0  0  0  0  0  0
   21.0299  -21.8189   -4.7448 O   0  0  0  0  0  1  0  0  0  0  0  0
   22.5387  -20.1205   -3.7100 C   0  0  0  0  0  0  0  0  0  0  0  0
   23.1245  -19.2770   -4.8235 C   0  0  0  0  0  0  0  0  0  0  0  0
   24.3843  -20.2149   -5.6828 S   0  0  1  0  0  6  0  0  0  0  0  0
   23.9997  -21.6780   -5.7462 O   0  0  0  0  0  0  0  0  0  0  0  0
   24.4898  -19.6637   -7.0537 O   0  0  0  0  0  0  0  0  0  0  0  0
   25.8308  -20.1093   -4.8830 O   0  0  0  0  0  1  0  0  0  0  0  0
  1  2  2  0
  2  3  1  0
  4  2  1  6
  5  4  1  6
  5  6  1  0
  6  7  2  0
  6  8  2  0
  6  9  1  1
M  CHG  2   3  -1   9  -1
M  END
$$$$
