
     RDKit          3D

  9  8  0  0  0  0  0  0  0  0999 V2000
   14.1229  -12.1685    5.7770 O   0  0  0  0  0  0  0  0  0  0  0  0
   14.4784  -11.7019    4.6633 C   0  0  0  0  0  0  0  0  0  0  0  0
   15.5299  -12.3762    4.0128 O   0  0  0  0  0  1  0  0  0  0  0  0
   13.8530  -10.5272    4.0451 C   0  0  0  0  0  0  0  0  0  0  0  0
   12.4031  -10.3846    4.4596 C   0  0  0  0  0  0  0  0  0  0  0  0
   12.2915   -9.2928    5.8741 S   0  0  1  0  0  6  0  0  0  0  0  0
   13.1472   -9.8136    7.0096 O   0  0  0  0  0  0  0  0  0  0  0  0
   12.7807   -7.9616    5.4466 O   0  0  0  0  0  0  0  0  0  0  0  0
   10.7296   -9.2093    6.4187 O   0  0  0  0  0  1  0  0  0  0  0  0
  1  2  2  0
  2  3  1  0
  4  2  1  6
  5  4  1  6
  5  6  1  0
  6  7  2  0
  6  8  2  0
  6  9  1  1
M  CHG  2   3  -1   9  -1
M  END
$$$$
