
     RDKit          3D

  9  8  0  0  0  0  0  0  0  0999 V2000
   10.9370  -12.1256    9.0060 O   0  0  0  0  0  0  0  0  0  0  0  0
    9.8085  -12.6659    9.1440 C   0  0  0  0  0  0  0  0  0  0  0  0
    9.4043  -13.5351    8.1123 O   0  0  0  0  0  1  0  0  0  0  0  0
    8.9388  -12.4306   10.3021 C   0  0  0  0  0  0  0  0  0  0  0  0
    9.3823  -11.2191   11.0956 C   0  0  0  0  0  0  0  0  0  0  0  0
    8.6875   -9.7399   10.3645 S   0  0  1  0  0  6  0  0  0  0  0  0
    7.1835   -9.7234   10.5389 O   0  0  0  0  0  0  0  0  0  0  0  0
    9.2864   -8.5776   11.0606 O   0  0  0  0  0  0  0  0  0  0  0  0
    9.0059   -9.6930    8.7398 O   0  0  0  0  0  1  0  0  0  0  0  0
  1  2  2  0
  2  3  1  0
  4  2  1  6
  5  4  1  6
  5  6  1  0
  6  7  2  0
  6  8  2  0
  6  9  1  6
M  CHG  2   3  -1   9  -1
M  END
$$$$
