
     RDKit          3D

  9  8  0  0  0  0  0  0  0  0999 V2000
   12.4541   -6.4142    4.3143 O   0  0  0  0  0  0  0  0  0  0  0  0
   11.1996   -6.4239    4.4163 C   0  0  0  0  0  0  0  0  0  0  0  0
   10.5361   -5.2367    4.0507 O   0  0  0  0  0  1  0  0  0  0  0  0
   10.4380   -7.5888    4.8813 C   0  0  0  0  0  0  0  0  0  0  0  0
   11.3475   -8.7545    5.2101 C   0  0  0  0  0  0  0  0  0  0  0  0
   11.1770   -9.1744    6.9421 S   0  0  1  0  0  6  0  0  0  0  0  0
   11.9460  -10.4408    7.2547 O   0  0  0  0  0  0  0  0  0  0  0  0
   11.7272   -8.0460    7.7283 O   0  0  0  0  0  0  0  0  0  0  0  0
    9.5870   -9.4459    7.3178 O   0  0  0  0  0  1  0  0  0  0  0  0
  1  2  2  0
  2  3  1  0
  4  2  1  6
  5  4  1  6
  5  6  1  0
  6  7  2  0
  6  8  2  0
  6  9  1  1
M  CHG  2   3  -1   9  -1
M  END
$$$$
