
     RDKit          3D

  9  8  0  0  0  0  0  0  0  0999 V2000
    8.4189   -9.9669    9.9156 O   0  0  0  0  0  0  0  0  0  0  0  0
    9.3481   -9.7715    9.0893 C   0  0  0  0  0  0  0  0  0  0  0  0
    9.9222   -8.4855    9.0907 O   0  0  0  0  0  1  0  0  0  0  0  0
    9.8346  -10.8023    8.1652 C   0  0  0  0  0  0  0  0  0  0  0  0
    9.0637  -12.0971    8.3184 C   0  0  0  0  0  0  0  0  0  0  0  0
   10.0343  -13.2600    9.2729 S   0  0  1  0  0  6  0  0  0  0  0  0
    9.2657  -14.5496    9.4702 O   0  0  0  0  0  0  0  0  0  0  0  0
   11.2779  -13.5278    8.5141 O   0  0  0  0  0  0  0  0  0  0  0  0
   10.3701  -12.6404   10.7717 O   0  0  0  0  0  1  0  0  0  0  0  0
  1  2  2  0
  2  3  1  0
  4  2  1  6
  5  4  1  6
  5  6  1  0
  6  7  2  0
  6  8  2  0
  6  9  1  1
M  CHG  2   3  -1   9  -1
M  END
$$$$
