
     RDKit          3D

  9  8  0  0  0  0  0  0  0  0999 V2000
   10.3235   -5.7811    5.4548 O   0  0  0  0  0  0  0  0  0  0  0  0
   11.5229   -6.1598    5.5054 C   0  0  0  0  0  0  0  0  0  0  0  0
   12.4801   -5.1618    5.7718 O   0  0  0  0  0  1  0  0  0  0  0  0
   11.9366   -7.5537    5.3078 C   0  0  0  0  0  0  0  0  0  0  0  0
   10.7753   -8.5102    5.4829 C   0  0  0  0  0  0  0  0  0  0  0  0
   10.6708   -9.0143    7.1977 S   0  0  1  0  0  6  0  0  0  0  0  0
   11.9757   -9.6404    7.6425 O   0  0  0  0  0  0  0  0  0  0  0  0
   10.3969   -7.8002    8.0010 O   0  0  0  0  0  0  0  0  0  0  0  0
    9.4769  -10.1448    7.3967 O   0  0  0  0  0  1  0  0  0  0  0  0
  1  2  2  0
  2  3  1  0
  4  2  1  6
  5  4  1  6
  5  6  1  0
  6  7  2  0
  6  8  2  0
  6  9  1  6
M  CHG  2   3  -1   9  -1
M  END
$$$$
