
     RDKit          3D

  9  8  0  0  0  0  0  0  0  0999 V2000
    8.5689  -25.6346   24.2380 O   0  0  0  0  0  0  0  0  0  0  0  0
    8.5474  -24.5494   23.6005 C   0  0  0  0  0  0  0  0  0  0  0  0
    7.4056  -24.3141   22.8105 O   0  0  0  0  0  1  0  0  0  0  0  0
    9.6299  -23.5603   23.6567 C   0  0  0  0  0  0  0  0  0  0  0  0
    9.8797  -23.0871   25.0737 C   0  0  0  0  0  0  0  0  0  0  0  0
    8.4952  -22.0945   25.6241 S   0  0  1  0  0  6  0  0  0  0  0  0
    7.1881  -22.7589   25.2460 O   0  0  0  0  0  0  0  0  0  0  0  0
    8.5911  -21.9777   27.0977 O   0  0  0  0  0  0  0  0  0  0  0  0
    8.5287  -20.6040   24.9027 O   0  0  0  0  0  1  0  0  0  0  0  0
  1  2  2  0
  2  3  1  0
  4  2  1  6
  5  4  1  6
  5  6  1  0
  6  7  2  0
  6  8  2  0
  6  9  1  6
M  CHG  2   3  -1   9  -1
M  END
$$$$
