
     RDKit          3D

  9  8  0  0  0  0  0  0  0  0999 V2000
    6.1674  -18.4167   10.9425 O   0  0  0  0  0  0  0  0  0  0  0  0
    7.0199  -17.4926   10.8828 C   0  0  0  0  0  0  0  0  0  0  0  0
    8.3343  -17.8330   11.2569 O   0  0  0  0  0  1  0  0  0  0  0  0
    6.6999  -16.1279   10.4485 C   0  0  0  0  0  0  0  0  0  0  0  0
    5.2050  -15.9193   10.3220 C   0  0  0  0  0  0  0  0  0  0  0  0
    4.5273  -15.4744   11.9183 S   0  0  1  0  0  6  0  0  0  0  0  0
    4.7383  -16.5981   12.9111 O   0  0  0  0  0  0  0  0  0  0  0  0
    5.2371  -14.2583   12.3781 O   0  0  0  0  0  0  0  0  0  0  0  0
    2.8971  -15.2068   11.8006 O   0  0  0  0  0  1  0  0  0  0  0  0
  1  2  2  0
  2  3  1  0
  4  2  1  6
  5  4  1  6
  5  6  1  0
  6  7  2  0
  6  8  2  0
  6  9  1  6
M  CHG  2   3  -1   9  -1
M  END
$$$$
