
     RDKit          3D

  9  8  0  0  0  0  0  0  0  0999 V2000
   15.5809   -5.1261   -1.4430 O   0  0  0  0  0  0  0  0  0  0  0  0
   15.8096   -5.1435   -2.6807 C   0  0  0  0  0  0  0  0  0  0  0  0
   17.1561   -5.2992   -3.0628 O   0  0  0  0  0  1  0  0  0  0  0  0
   14.7581   -5.0162   -3.6962 C   0  0  0  0  0  0  0  0  0  0  0  0
   13.3832   -5.2579   -3.1085 C   0  0  0  0  0  0  0  0  0  0  0  0
   12.3284   -3.8549   -3.4611 S   0  0  1  0  0  6  0  0  0  0  0  0
   12.0498   -3.7663   -4.9468 O   0  0  0  0  0  0  0  0  0  0  0  0
   11.0598   -4.0573   -2.7237 O   0  0  0  0  0  0  0  0  0  0  0  0
   13.0679   -2.4455   -3.0031 O   0  0  0  0  0  1  0  0  0  0  0  0
  1  2  2  0
  2  3  1  0
  4  2  1  6
  5  4  1  6
  5  6  1  0
  6  7  2  0
  6  8  2  0
  6  9  1  1
M  CHG  2   3  -1   9  -1
M  END
$$$$
