
     RDKit          3D

  9  8  0  0  0  0  0  0  0  0999 V2000
   12.7598   -8.0752    4.7841 O   0  0  0  0  0  0  0  0  0  0  0  0
   11.5849   -8.0948    4.3328 C   0  0  0  0  0  0  0  0  0  0  0  0
   11.4555   -8.2650    2.9408 O   0  0  0  0  0  1  0  0  0  0  0  0
   10.3943   -7.9560    5.1792 C   0  0  0  0  0  0  0  0  0  0  0  0
   10.5232   -6.7886    6.1357 C   0  0  0  0  0  0  0  0  0  0  0  0
    8.9085   -6.3678    6.7846 S   0  0  1  0  0  6  0  0  0  0  0  0
    9.0439   -5.6763    8.1248 O   0  0  0  0  0  0  0  0  0  0  0  0
    8.2636   -5.4556    5.8119 O   0  0  0  0  0  0  0  0  0  0  0  0
    8.0026   -7.7353    7.0135 O   0  0  0  0  0  1  0  0  0  0  0  0
  1  2  2  0
  2  3  1  0
  4  2  1  6
  5  4  1  6
  5  6  1  0
  6  7  2  0
  6  8  2  0
  6  9  1  1
M  CHG  2   3  -1   9  -1
M  END
$$$$
