
     RDKit          3D

  9  8  0  0  0  0  0  0  0  0999 V2000
    9.1860   -4.5194    8.8737 O   0  0  0  0  0  0  0  0  0  0  0  0
    9.6033   -5.5709    9.4256 C   0  0  0  0  0  0  0  0  0  0  0  0
   10.8307   -5.4704   10.1087 O   0  0  0  0  0  1  0  0  0  0  0  0
    8.8771   -6.8453    9.3843 C   0  0  0  0  0  0  0  0  0  0  0  0
    7.4558   -6.6615    8.8941 C   0  0  0  0  0  0  0  0  0  0  0  0
    6.8199   -8.2285    8.3065 S   0  0  1  0  0  6  0  0  0  0  0  0
    7.7679   -8.8343    7.2931 O   0  0  0  0  0  0  0  0  0  0  0  0
    6.6981   -9.1255    9.4790 O   0  0  0  0  0  0  0  0  0  0  0  0
    5.3559   -8.0162    7.5615 O   0  0  0  0  0  1  0  0  0  0  0  0
  1  2  2  0
  2  3  1  0
  4  2  1  6
  5  4  1  6
  5  6  1  0
  6  7  2  0
  6  8  2  0
  6  9  1  6
M  CHG  2   3  -1   9  -1
M  END
$$$$
