
     RDKit          3D

  9  8  0  0  0  0  0  0  0  0999 V2000
   10.7053  -22.4529   -5.2567 O   0  0  0  0  0  0  0  0  0  0  0  0
   11.6050  -21.5726   -5.2644 C   0  0  0  0  0  0  0  0  0  0  0  0
   12.7346  -21.8299   -4.4637 O   0  0  0  0  0  1  0  0  0  0  0  0
   11.5181  -20.3387   -6.0538 C   0  0  0  0  0  0  0  0  0  0  0  0
   10.2525  -20.2964   -6.8849 C   0  0  0  0  0  0  0  0  0  0  0  0
   10.0942  -18.6852   -7.6493 S   0  0  1  0  0  6  0  0  0  0  0  0
   11.3116  -18.3834   -8.4976 O   0  0  0  0  0  0  0  0  0  0  0  0
    8.8833  -18.7159   -8.5020 O   0  0  0  0  0  0  0  0  0  0  0  0
    9.9817  -17.5047   -6.4931 O   0  0  0  0  0  1  0  0  0  0  0  0
  1  2  2  0
  2  3  1  0
  4  2  1  6
  5  4  1  6
  5  6  1  0
  6  7  2  0
  6  8  2  0
  6  9  1  1
M  CHG  2   3  -1   9  -1
M  END
$$$$
