
     RDKit          3D

  9  8  0  0  0  0  0  0  0  0999 V2000
   25.3485  -19.7760   -2.1912 O   0  0  0  0  0  0  0  0  0  0  0  0
   24.7158  -18.8713   -1.5864 C   0  0  0  0  0  0  0  0  0  0  0  0
   24.4661  -19.0943   -0.2185 O   0  0  0  0  0  1  0  0  0  0  0  0
   24.2534  -17.6395   -2.2359 C   0  0  0  0  0  0  0  0  0  0  0  0
   24.6555  -17.5940   -3.6956 C   0  0  0  0  0  0  0  0  0  0  0  0
   26.4387  -17.6852   -3.8264 S   0  0  1  0  0  6  0  0  0  0  0  0
   26.8521  -17.8565   -5.2729 O   0  0  0  0  0  0  0  0  0  0  0  0
   26.9879  -16.4165   -3.2942 O   0  0  0  0  0  0  0  0  0  0  0  0
   27.0151  -18.9875   -2.9810 O   0  0  0  0  0  1  0  0  0  0  0  0
  1  2  2  0
  2  3  1  0
  4  2  1  6
  5  4  1  6
  5  6  1  0
  6  7  2  0
  6  8  2  0
  6  9  1  1
M  CHG  2   3  -1   9  -1
M  END
$$$$
