
     RDKit          3D

  9  8  0  0  0  0  0  0  0  0999 V2000
   23.1254   -4.2930   -1.4684 O   0  0  0  0  0  0  0  0  0  0  0  0
   23.1706   -5.4178   -0.9052 C   0  0  0  0  0  0  0  0  0  0  0  0
   22.5387   -5.5113    0.3499 O   0  0  0  0  0  1  0  0  0  0  0  0
   23.8308   -6.5881   -1.4947 C   0  0  0  0  0  0  0  0  0  0  0  0
   24.4396   -6.2644   -2.8434 C   0  0  0  0  0  0  0  0  0  0  0  0
   26.2038   -6.5642   -2.7891 S   0  0  1  0  0  6  0  0  0  0  0  0
   26.4830   -8.0507   -2.7180 O   0  0  0  0  0  0  0  0  0  0  0  0
   26.7875   -6.0025   -4.0293 O   0  0  0  0  0  0  0  0  0  0  0  0
   26.8689   -5.8626   -1.4442 O   0  0  0  0  0  1  0  0  0  0  0  0
  1  2  2  0
  2  3  1  0
  4  2  1  6
  5  4  1  6
  5  6  1  0
  6  7  2  0
  6  8  2  0
  6  9  1  1
M  CHG  2   3  -1   9  -1
M  END
$$$$
