
     RDKit          3D

  9  8  0  0  0  0  0  0  0  0999 V2000
   14.1647  -13.9750    5.5978 O   0  0  0  0  0  0  0  0  0  0  0  0
   14.3313  -14.9872    6.3273 C   0  0  0  0  0  0  0  0  0  0  0  0
   14.1806  -14.7873    7.7131 O   0  0  0  0  0  1  0  0  0  0  0  0
   14.6600  -16.3160    5.7987 C   0  0  0  0  0  0  0  0  0  0  0  0
   15.7490  -16.2445    4.7483 C   0  0  0  0  0  0  0  0  0  0  0  0
   17.3201  -16.6814    5.4872 S   0  0  1  0  0  6  0  0  0  0  0  0
   17.7252  -15.6447    6.5138 O   0  0  0  0  0  0  0  0  0  0  0  0
   17.1507  -17.9985    6.1436 O   0  0  0  0  0  0  0  0  0  0  0  0
   18.5068  -16.7367    4.3332 O   0  0  0  0  0  1  0  0  0  0  0  0
  1  2  2  0
  2  3  1  0
  4  2  1  6
  5  4  1  6
  5  6  1  0
  6  7  2  0
  6  8  2  0
  6  9  1  6
M  CHG  2   3  -1   9  -1
M  END
$$$$
