
     RDKit          3D

  9  8  0  0  0  0  0  0  0  0999 V2000
   22.8977  -15.9314   -8.2584 O   0  0  0  0  0  0  0  0  0  0  0  0
   22.4859  -14.9535   -7.5813 C   0  0  0  0  0  0  0  0  0  0  0  0
   21.1214  -14.9680   -7.2330 O   0  0  0  0  0  1  0  0  0  0  0  0
   23.3502  -13.8461   -7.1572 C   0  0  0  0  0  0  0  0  0  0  0  0
   24.5810  -14.3465   -6.4298 C   0  0  0  0  0  0  0  0  0  0  0  0
   24.0863  -15.1874   -4.9287 S   0  0  1  0  0  6  0  0  0  0  0  0
   23.0766  -14.3546   -4.1674 O   0  0  0  0  0  0  0  0  0  0  0  0
   23.4764  -16.4783   -5.3238 O   0  0  0  0  0  0  0  0  0  0  0  0
   25.3935  -15.4217   -3.9390 O   0  0  0  0  0  1  0  0  0  0  0  0
  1  2  2  0
  2  3  1  0
  4  2  1  6
  5  4  1  6
  5  6  1  0
  6  7  2  0
  6  8  2  0
  6  9  1  1
M  CHG  2   3  -1   9  -1
M  END
$$$$
