
     RDKit          3D

 23 25  0  0  0  0  0  0  0  0999 V2000
   32.0152   38.8158   63.7655 O   0  0  0  0  0  0  0  0  0  0  0  0
   30.8592   39.4185   63.2880 C   0  0  0  0  0  0  0  0  0  0  0  0
   29.8557   39.6627   64.3626 C   0  0  0  0  0  0  0  0  0  0  0  0
   30.0978   39.3332   65.6794 C   0  0  0  0  0  0  0  0  0  0  0  0
   29.1679   39.5589   66.6791 C   0  0  0  0  0  0  0  0  0  0  0  0
   27.9461   40.1304   66.3898 C   0  0  0  0  0  0  0  0  0  0  0  0
   26.9605   40.3727   67.4364 C   0  0  0  0  0  0  0  0  0  0  0  0
   26.7711   39.5429   68.5174 C   0  0  0  0  0  0  0  0  0  0  0  0
   25.8310   39.7964   69.4946 C   0  0  0  0  0  0  0  0  0  0  0  0
   25.7054   38.8557   70.6112 C   0  0  1  0  0  0  0  0  0  0  0  0
   26.8453   38.8331   71.5442 C   0  0  0  0  0  0  0  0  0  0  0  0
   27.8518   39.8669   71.5140 N   0  0  0  0  0  0  0  0  0  0  0  0
   26.9493   37.8669   72.3841 N   0  0  0  0  0  4  0  0  0  0  0  0
   24.3968   38.9160   71.3700 C   0  0  0  0  0  0  0  0  0  0  0  0
   23.8418   37.9244   70.3944 C   0  0  0  0  0  0  0  0  0  0  0  0
   25.2976   37.4708   70.1683 C   0  0  0  0  0  0  0  0  0  0  0  0
   25.0691   40.9295   69.3552 C   0  0  0  0  0  0  0  0  0  0  0  0
   25.2210   41.7958   68.2861 C   0  0  0  0  0  0  0  0  0  0  0  0
   24.2230   43.2314   68.1514 Cl  0  0  0  0  0  0  0  0  0  0  0  0
   26.1747   41.4968   67.3369 C   0  0  0  0  0  0  0  0  0  0  0  0
   27.7006   40.4611   65.0730 C   0  0  0  0  0  0  0  0  0  0  0  0
   28.6359   40.2340   64.0688 C   0  0  0  0  0  0  0  0  0  0  0  0
   28.2969   40.6637   62.4111 Cl  0  0  0  0  0  0  0  0  0  0  0  0
  2  1  1  6
  2  3  1  0
  3 22  2  0
  3  4  1  0
  4  5  2  0
  5  6  1  0
  6  7  1  0
  6 21  2  0
  7 20  1  0
  7  8  2  0
  8  9  1  0
 10  9  1  6
  9 17  2  0
 10 16  1  0
 10 11  1  0
 14 10  1  6
 11 12  1  0
 11 13  2  3
 15 14  1  6
 16 15  1  1
 17 18  1  0
 18 19  1  0
 18 20  2  0
 21 22  1  0
 22 23  1  0
M  CHG  1  13   1
M  END
$$$$
