
     RDKit          3D

 23 25  0  0  0  0  0  0  0  0999 V2000
   19.6291   38.8115   60.0712 O   0  0  0  0  0  0  0  0  0  0  0  0
   20.1456   38.5796   58.8035 C   0  0  0  0  0  0  0  0  0  0  0  0
   19.3035   39.1718   57.7257 C   0  0  0  0  0  0  0  0  0  0  0  0
   18.1728   39.9109   58.0025 C   0  0  0  0  0  0  0  0  0  0  0  0
   17.3892   40.4619   57.0038 C   0  0  0  0  0  0  0  0  0  0  0  0
   17.7159   40.2889   55.6747 C   0  0  0  0  0  0  0  0  0  0  0  0
   16.8969   40.8662   54.6158 C   0  0  0  0  0  0  0  0  0  0  0  0
   15.5624   41.1692   54.7583 C   0  0  0  0  0  0  0  0  0  0  0  0
   14.8104   41.7160   53.7392 C   0  0  0  0  0  0  0  0  0  0  0  0
   13.3960   42.0084   53.9873 C   0  0  1  0  0  0  0  0  0  0  0  0
   12.4484   41.0013   53.4790 C   0  0  0  0  0  0  0  0  0  0  0  0
   12.5333   40.5183   52.1218 N   0  0  0  0  0  0  0  0  0  0  0  0
   11.5236   40.5625   54.2549 N   0  0  0  0  0  4  0  0  0  0  0  0
   13.0504   42.3953   55.4096 C   0  0  0  0  0  0  0  0  0  0  0  0
   13.3411   43.8177   55.0412 C   0  0  0  0  0  0  0  0  0  0  0  0
   13.0092   43.4133   53.5912 C   0  0  0  0  0  0  0  0  0  0  0  0
   15.4469   41.9560   52.5471 C   0  0  0  0  0  0  0  0  0  0  0  0
   16.7873   41.6686   52.3537 C   0  0  0  0  0  0  0  0  0  0  0  0
   17.5564   41.9929   50.8114 Cl  0  0  0  0  0  0  0  0  0  0  0  0
   17.4939   41.1232   53.4039 C   0  0  0  0  0  0  0  0  0  0  0  0
   18.8467   39.5496   55.3944 C   0  0  0  0  0  0  0  0  0  0  0  0
   19.6337   38.9962   56.3989 C   0  0  0  0  0  0  0  0  0  0  0  0
   21.0596   38.0657   56.0133 Cl  0  0  0  0  0  0  0  0  0  0  0  0
  2  1  1  6
  2  3  1  0
  3 22  2  0
  3  4  1  0
  4  5  2  0
  5  6  1  0
  6  7  1  0
  6 21  2  0
  7 20  1  0
  7  8  2  0
  8  9  1  0
 10  9  1  1
  9 17  2  0
 10 16  1  0
 10 11  1  0
 14 10  1  6
 11 12  1  0
 11 13  2  3
 15 14  1  6
 16 15  1  1
 17 18  1  0
 18 19  1  0
 18 20  2  0
 21 22  1  0
 22 23  1  0
M  CHG  1  13   1
M  END
$$$$
