
     RDKit          3D

 23 25  0  0  0  0  0  0  0  0999 V2000
   18.2551   40.4522   47.7132 O   0  0  0  0  0  0  0  0  0  0  0  0
   16.9805   40.0489   48.0876 C   0  0  0  0  0  0  0  0  0  0  0  0
   16.7410   40.1963   49.5513 C   0  0  0  0  0  0  0  0  0  0  0  0
   17.5611   40.9603   50.3544 C   0  0  0  0  0  0  0  0  0  0  0  0
   17.3410   41.0988   51.7136 C   0  0  0  0  0  0  0  0  0  0  0  0
   16.2766   40.4679   52.3236 C   0  0  0  0  0  0  0  0  0  0  0  0
   16.0363   40.6086   53.7546 C   0  0  0  0  0  0  0  0  0  0  0  0
   14.7848   40.7292   54.3132 C   0  0  0  0  0  0  0  0  0  0  0  0
   14.5856   40.8605   55.6719 C   0  0  0  0  0  0  0  0  0  0  0  0
   13.2139   40.9789   56.1738 C   0  0  1  0  0  0  0  0  0  0  0  0
   12.5221   39.7011   56.4171 C   0  0  0  0  0  0  0  0  0  0  0  0
   11.5622   39.1833   55.4720 N   0  0  0  0  0  0  0  0  0  0  0  0
   12.7680   39.0505   57.4969 N   0  0  0  0  0  4  0  0  0  0  0  0
   13.0281   41.9173   57.3472 C   0  0  0  0  0  0  0  0  0  0  0  0
   12.8274   43.0288   56.3634 C   0  0  0  0  0  0  0  0  0  0  0  0
   12.3756   41.9421   55.3678 C   0  0  0  0  0  0  0  0  0  0  0  0
   15.7001   40.8677   56.4729 C   0  0  0  0  0  0  0  0  0  0  0  0
   16.9804   40.7497   55.9596 C   0  0  0  0  0  0  0  0  0  0  0  0
   18.3741   40.7647   57.0240 Cl  0  0  0  0  0  0  0  0  0  0  0  0
   17.1249   40.6210   54.5949 C   0  0  0  0  0  0  0  0  0  0  0  0
   15.4541   39.7025   51.5228 C   0  0  0  0  0  0  0  0  0  0  0  0
   15.6761   39.5638   50.1567 C   0  0  0  0  0  0  0  0  0  0  0  0
   14.6174   38.5888   49.1686 Cl  0  0  0  0  0  0  0  0  0  0  0  0
  2  1  1  6
  2  3  1  0
  3 22  2  0
  3  4  1  0
  4  5  2  0
  5  6  1  0
  6  7  1  0
  6 21  2  0
  7 20  1  0
  7  8  2  0
  8  9  1  0
 10  9  1  6
  9 17  2  0
 10 16  1  0
 10 11  1  0
 14 10  1  6
 11 12  1  0
 11 13  2  3
 15 14  1  6
 16 15  1  1
 17 18  1  0
 18 19  1  0
 18 20  2  0
 21 22  1  0
 22 23  1  0
M  CHG  1  13   1
M  END
$$$$
