
     RDKit          3D

 23 25  0  0  0  0  0  0  0  0999 V2000
   30.7681   41.4494   61.7507 O   0  0  0  0  0  0  0  0  0  0  0  0
   31.2894   41.0014   62.9569 C   0  0  0  0  0  0  0  0  0  0  0  0
   30.2315   40.7251   63.9698 C   0  0  0  0  0  0  0  0  0  0  0  0
   28.8925   40.9150   63.7008 C   0  0  0  0  0  0  0  0  0  0  0  0
   27.9082   40.6593   64.6393 C   0  0  0  0  0  0  0  0  0  0  0  0
   28.2361   40.1980   65.8974 C   0  0  0  0  0  0  0  0  0  0  0  0
   27.2061   39.9252   66.8924 C   0  0  0  0  0  0  0  0  0  0  0  0
   27.4161   39.9910   68.2505 C   0  0  0  0  0  0  0  0  0  0  0  0
   26.4226   39.7283   69.1709 C   0  0  0  0  0  0  0  0  0  0  0  0
   26.7411   39.8281   70.5978 C   0  0  1  0  0  0  0  0  0  0  0  0
   26.0025   40.8684   71.3345 C   0  0  0  0  0  0  0  0  0  0  0  0
   25.7211   42.1490   70.7316 N   0  0  0  0  0  0  0  0  0  0  0  0
   25.6202   40.6328   72.5379 N   0  0  0  0  0  4  0  0  0  0  0  0
   26.7255   38.5213   71.3618 C   0  0  0  0  0  0  0  0  0  0  0  0
   28.1660   38.3443   70.9919 C   0  0  0  0  0  0  0  0  0  0  0  0
   28.2264   39.8795   70.8650 C   0  0  0  0  0  0  0  0  0  0  0  0
   25.1856   39.3904   68.6815 C   0  0  0  0  0  0  0  0  0  0  0  0
   24.9239   39.3103   67.3244 C   0  0  0  0  0  0  0  0  0  0  0  0
   23.3265   38.8738   66.7474 Cl  0  0  0  0  0  0  0  0  0  0  0  0
   25.9511   39.5825   66.4466 C   0  0  0  0  0  0  0  0  0  0  0  0
   29.5752   40.0072   66.1698 C   0  0  0  0  0  0  0  0  0  0  0  0
   30.5638   40.2644   65.2259 C   0  0  0  0  0  0  0  0  0  0  0  0
   32.2504   40.0127   65.5995 Cl  0  0  0  0  0  0  0  0  0  0  0  0
  2  1  1  6
  2  3  1  0
  3 22  2  0
  3  4  1  0
  4  5  2  0
  5  6  1  0
  6  7  1  0
  6 21  2  0
  7 20  1  0
  7  8  2  0
  8  9  1  0
 10  9  1  6
  9 17  2  0
 10 16  1  0
 10 11  1  0
 14 10  1  6
 11 12  1  0
 11 13  2  3
 15 14  1  6
 16 15  1  1
 17 18  1  0
 18 19  1  0
 18 20  2  0
 21 22  1  0
 22 23  1  0
M  CHG  1  13   1
M  END
$$$$
