
     RDKit          3D

 23 25  0  0  0  0  0  0  0  0999 V2000
   31.6545   26.0255   57.0822 O   0  0  0  0  0  0  0  0  0  0  0  0
   32.9239   25.8484   56.5486 C   0  0  0  0  0  0  0  0  0  0  0  0
   32.8947   25.5601   55.0866 C   0  0  0  0  0  0  0  0  0  0  0  0
   31.8793   24.8317   54.5039 C   0  0  0  0  0  0  0  0  0  0  0  0
   31.8497   24.5625   53.1468 C   0  0  0  0  0  0  0  0  0  0  0  0
   32.8506   25.0202   52.3150 C   0  0  0  0  0  0  0  0  0  0  0  0
   32.8275   24.7423   50.8841 C   0  0  0  0  0  0  0  0  0  0  0  0
   32.4001   23.5524   50.3416 C   0  0  0  0  0  0  0  0  0  0  0  0
   32.3880   23.3158   48.9825 C   0  0  0  0  0  0  0  0  0  0  0  0
   31.9110   22.0174   48.4985 C   0  0  1  0  0  0  0  0  0  0  0  0
   30.7519   22.0731   47.5908 C   0  0  0  0  0  0  0  0  0  0  0  0
   29.7258   23.0746   47.7553 N   0  0  0  0  0  0  0  0  0  0  0  0
   30.6492   21.2040   46.6507 N   0  0  0  0  0  4  0  0  0  0  0  0
   32.9775   21.0965   47.9450 C   0  0  0  0  0  0  0  0  0  0  0  0
   33.1765   20.5725   49.3339 C   0  0  0  0  0  0  0  0  0  0  0  0
   31.7242   21.0104   49.6082 C   0  0  0  0  0  0  0  0  0  0  0  0
   32.8258   24.3271   48.1644 C   0  0  0  0  0  0  0  0  0  0  0  0
   33.2658   25.5420   48.6612 C   0  0  0  0  0  0  0  0  0  0  0  0
   33.8165   26.8041   47.5753 Cl  0  0  0  0  0  0  0  0  0  0  0  0
   33.2578   25.7277   50.0270 C   0  0  0  0  0  0  0  0  0  0  0  0
   33.8683   25.7493   52.8951 C   0  0  0  0  0  0  0  0  0  0  0  0
   33.8972   26.0193   54.2592 C   0  0  0  0  0  0  0  0  0  0  0  0
   35.1982   26.9454   54.9646 Cl  0  0  0  0  0  0  0  0  0  0  0  0
  2  1  1  6
  2  3  1  0
  3 22  2  0
  3  4  1  0
  4  5  2  0
  5  6  1  0
  6  7  1  0
  6 21  2  0
  7 20  1  0
  7  8  2  0
  8  9  1  0
 10  9  1  1
  9 17  2  0
 10 16  1  0
 10 11  1  0
 14 10  1  6
 11 12  1  0
 11 13  2  3
 15 14  1  6
 16 15  1  1
 17 18  1  0
 18 19  1  0
 18 20  2  0
 21 22  1  0
 22 23  1  0
M  CHG  1  13   1
M  END
$$$$
