
     RDKit          3D

 23 25  0  0  0  0  0  0  0  0999 V2000
   19.8413   40.6504   70.7513 O   0  0  0  0  0  0  0  0  0  0  0  0
   20.1356   40.8456   69.4086 C   0  0  0  0  0  0  0  0  0  0  0  0
   21.5300   40.4469   69.0650 C   0  0  0  0  0  0  0  0  0  0  0  0
   22.3087   39.6955   69.9196 C   0  0  0  0  0  0  0  0  0  0  0  0
   23.6036   39.3240   69.6031 C   0  0  0  0  0  0  0  0  0  0  0  0
   24.1710   39.6977   68.4024 C   0  0  0  0  0  0  0  0  0  0  0  0
   25.5341   39.3104   68.0599 C   0  0  0  0  0  0  0  0  0  0  0  0
   26.4223   40.1317   67.4046 C   0  0  0  0  0  0  0  0  0  0  0  0
   27.7078   39.7398   67.0931 C   0  0  0  0  0  0  0  0  0  0  0  0
   28.5827   40.6867   66.3966 C   0  0  1  0  0  0  0  0  0  0  0  0
   28.7288   40.4580   64.9485 C   0  0  0  0  0  0  0  0  0  0  0  0
   27.5721   40.3451   64.0929 N   0  0  0  0  0  0  0  0  0  0  0  0
   29.9058   40.3411   64.4476 N   0  0  0  0  0  4  0  0  0  0  0  0
   28.3170   42.1498   66.6808 C   0  0  0  0  0  0  0  0  0  0  0  0
   29.2566   42.0443   67.8424 C   0  0  0  0  0  0  0  0  0  0  0  0
   29.9133   40.8723   67.0863 C   0  0  0  0  0  0  0  0  0  0  0  0
   28.0867   38.4741   67.4649 C   0  0  0  0  0  0  0  0  0  0  0  0
   27.2304   37.6100   68.1255 C   0  0  0  0  0  0  0  0  0  0  0  0
   27.7606   36.0012   68.5797 Cl  0  0  0  0  0  0  0  0  0  0  0  0
   25.9563   38.0502   68.4134 C   0  0  0  0  0  0  0  0  0  0  0  0
   23.3945   40.4498   67.5450 C   0  0  0  0  0  0  0  0  0  0  0  0
   22.0930   40.8228   67.8641 C   0  0  0  0  0  0  0  0  0  0  0  0
   21.1343   41.7745   66.7583 Cl  0  0  0  0  0  0  0  0  0  0  0  0
  2  1  1  6
  2  3  1  0
  3 22  2  0
  3  4  1  0
  4  5  2  0
  5  6  1  0
  6  7  1  0
  6 21  2  0
  7 20  1  0
  7  8  2  0
  8  9  1  0
 10  9  1  1
  9 17  2  0
 10 16  1  0
 10 11  1  0
 14 10  1  6
 11 12  1  0
 11 13  2  3
 15 14  1  6
 16 15  1  1
 17 18  1  0
 18 19  1  0
 18 20  2  0
 21 22  1  0
 22 23  1  0
M  CHG  1  13   1
M  END
$$$$
