
     RDKit          3D

 23 25  0  0  0  0  0  0  0  0999 V2000
    2.4397   38.1480   75.0755 O   0  0  0  0  0  0  0  0  0  0  0  0
    3.5038   37.2690   74.9248 C   0  0  0  0  0  0  0  0  0  0  0  0
    4.7467   37.7567   75.5871 C   0  0  0  0  0  0  0  0  0  0  0  0
    4.8106   38.9846   76.2112 C   0  0  0  0  0  0  0  0  0  0  0  0
    5.9633   39.4399   76.8268 C   0  0  0  0  0  0  0  0  0  0  0  0
    7.1078   38.6698   76.8386 C   0  0  0  0  0  0  0  0  0  0  0  0
    8.3265   39.1407   77.4854 C   0  0  0  0  0  0  0  0  0  0  0  0
    9.2526   38.3097   78.0725 C   0  0  0  0  0  0  0  0  0  0  0  0
   10.3989   38.7822   78.6775 C   0  0  0  0  0  0  0  0  0  0  0  0
   11.3286   37.8186   79.2729 C   0  0  1  0  0  0  0  0  0  0  0  0
   10.7262   36.8733   80.2288 C   0  0  0  0  0  0  0  0  0  0  0  0
   11.4070   35.6564   80.6008 N   0  0  0  0  0  0  0  0  0  0  0  0
    9.5693   37.1327   80.7228 N   0  0  0  0  0  4  0  0  0  0  0  0
   12.2254   37.0891   78.2954 C   0  0  0  0  0  0  0  0  0  0  0  0
   13.2071   38.2118   78.4336 C   0  0  0  0  0  0  0  0  0  0  0  0
   12.5781   38.4688   79.8174 C   0  0  0  0  0  0  0  0  0  0  0  0
   10.5955   40.1406   78.6777 C   0  0  0  0  0  0  0  0  0  0  0  0
    9.6937   41.0183   78.1008 C   0  0  0  0  0  0  0  0  0  0  0  0
    9.9887   42.7468   78.1268 Cl  0  0  0  0  0  0  0  0  0  0  0  0
    8.5641   40.4950   77.5091 C   0  0  0  0  0  0  0  0  0  0  0  0
    7.0472   37.4407   76.2148 C   0  0  0  0  0  0  0  0  0  0  0  0
    5.8882   36.9839   75.5963 C   0  0  0  0  0  0  0  0  0  0  0  0
    5.8416   35.4232   74.8152 Cl  0  0  0  0  0  0  0  0  0  0  0  0
  2  1  1  6
  2  3  1  0
  3 22  2  0
  3  4  1  0
  4  5  2  0
  5  6  1  0
  6  7  1  0
  6 21  2  0
  7 20  1  0
  7  8  2  0
  8  9  1  0
 10  9  1  6
  9 17  2  0
 10 16  1  0
 10 11  1  0
 14 10  1  6
 11 12  1  0
 11 13  2  3
 15 14  1  6
 16 15  1  1
 17 18  1  0
 18 19  1  0
 18 20  2  0
 21 22  1  0
 22 23  1  0
M  CHG  1  13   1
M  END
$$$$
