
     RDKit          3D

 23 25  0  0  0  0  0  0  0  0999 V2000
   19.1618   40.8146   48.4056 O   0  0  0  0  0  0  0  0  0  0  0  0
   18.3741   39.7623   48.8524 C   0  0  0  0  0  0  0  0  0  0  0  0
   17.7375   40.0437   50.1703 C   0  0  0  0  0  0  0  0  0  0  0  0
   18.1462   41.0877   50.9730 C   0  0  0  0  0  0  0  0  0  0  0  0
   17.5570   41.3513   52.1971 C   0  0  0  0  0  0  0  0  0  0  0  0
   16.5234   40.5669   52.6657 C   0  0  0  0  0  0  0  0  0  0  0  0
   15.8960   40.8374   53.9536 C   0  0  0  0  0  0  0  0  0  0  0  0
   14.5399   40.9907   54.1281 C   0  0  0  0  0  0  0  0  0  0  0  0
   13.9720   41.2456   55.3592 C   0  0  0  0  0  0  0  0  0  0  0  0
   12.5163   41.3896   55.4463 C   0  0  1  0  0  0  0  0  0  0  0  0
   12.0451   42.5147   56.2726 C   0  0  0  0  0  0  0  0  0  0  0  0
   11.5752   42.3020   57.6204 N   0  0  0  0  0  0  0  0  0  0  0  0
   12.0387   43.6987   55.7749 N   0  0  0  0  0  4  0  0  0  0  0  0
   11.7777   41.3527   54.1254 C   0  0  0  0  0  0  0  0  0  0  0  0
   11.6984   39.8637   54.2673 C   0  0  0  0  0  0  0  0  0  0  0  0
   11.8181   40.0946   55.7867 C   0  0  0  0  0  0  0  0  0  0  0  0
   14.8196   41.3447   56.4342 C   0  0  0  0  0  0  0  0  0  0  0  0
   16.1907   41.1987   56.3106 C   0  0  0  0  0  0  0  0  0  0  0  0
   17.2332   41.3345   57.7143 Cl  0  0  0  0  0  0  0  0  0  0  0  0
   16.7077   40.9449   55.0584 C   0  0  0  0  0  0  0  0  0  0  0  0
   16.1122   39.5213   51.8650 C   0  0  0  0  0  0  0  0  0  0  0  0
   16.7051   39.2571   50.6348 C   0  0  0  0  0  0  0  0  0  0  0  0
   16.1627   37.9268   49.6430 Cl  0  0  0  0  0  0  0  0  0  0  0  0
  2  1  1  6
  2  3  1  0
  3 22  2  0
  3  4  1  0
  4  5  2  0
  5  6  1  0
  6  7  1  0
  6 21  2  0
  7 20  1  0
  7  8  2  0
  8  9  1  0
 10  9  1  6
  9 17  2  0
 10 16  1  0
 10 11  1  0
 14 10  1  6
 11 12  1  0
 11 13  2  3
 15 14  1  6
 16 15  1  1
 17 18  1  0
 18 19  1  0
 18 20  2  0
 21 22  1  0
 22 23  1  0
M  CHG  1  13   1
M  END
$$$$
