
     RDKit          3D

 23 25  0  0  0  0  0  0  0  0999 V2000
   21.8936   38.8096   70.9601 O   0  0  0  0  0  0  0  0  0  0  0  0
   22.6427   39.9785   70.9674 C   0  0  0  0  0  0  0  0  0  0  0  0
   23.7950   39.9252   70.0235 C   0  0  0  0  0  0  0  0  0  0  0  0
   23.6202   39.8375   68.6586 C   0  0  0  0  0  0  0  0  0  0  0  0
   24.6882   39.7878   67.7800 C   0  0  0  0  0  0  0  0  0  0  0  0
   25.9865   39.8249   68.2452 C   0  0  0  0  0  0  0  0  0  0  0  0
   27.1179   39.7738   67.3273 C   0  0  0  0  0  0  0  0  0  0  0  0
   28.3851   40.2028   67.6485 C   0  0  0  0  0  0  0  0  0  0  0  0
   29.4388   40.1425   66.7602 C   0  0  0  0  0  0  0  0  0  0  0  0
   30.7541   40.6200   67.1952 C   0  0  1  0  0  0  0  0  0  0  0  0
   31.0636   42.0162   66.8411 C   0  0  0  0  0  0  0  0  0  0  0  0
   30.8162   43.0917   67.7709 N   0  0  0  0  0  0  0  0  0  0  0  0
   31.5451   42.2765   65.6791 N   0  0  0  0  0  4  0  0  0  0  0  0
   31.0993   40.3487   68.6440 C   0  0  0  0  0  0  0  0  0  0  0  0
   31.6560   39.0267   68.2128 C   0  0  0  0  0  0  0  0  0  0  0  0
   31.8722   39.6730   66.8300 C   0  0  0  0  0  0  0  0  0  0  0  0
   29.1815   39.6290   65.5135 C   0  0  0  0  0  0  0  0  0  0  0  0
   27.9242   39.1845   65.1420 C   0  0  0  0  0  0  0  0  0  0  0  0
   27.6446   38.5366   63.5366 Cl  0  0  0  0  0  0  0  0  0  0  0  0
   26.9055   39.2667   66.0668 C   0  0  0  0  0  0  0  0  0  0  0  0
   26.1647   39.9124   69.6106 C   0  0  0  0  0  0  0  0  0  0  0  0
   25.0906   39.9623   70.4929 C   0  0  0  0  0  0  0  0  0  0  0  0
   25.3475   40.0736   72.2161 Cl  0  0  0  0  0  0  0  0  0  0  0  0
  2  1  1  6
  2  3  1  0
  3 22  2  0
  3  4  1  0
  4  5  2  0
  5  6  1  0
  6  7  1  0
  6 21  2  0
  7 20  1  0
  7  8  2  0
  8  9  1  0
 10  9  1  1
  9 17  2  0
 10 16  1  0
 10 11  1  0
 14 10  1  6
 11 12  1  0
 11 13  2  3
 15 14  1  6
 16 15  1  1
 17 18  1  0
 18 19  1  0
 18 20  2  0
 21 22  1  0
 22 23  1  0
M  CHG  1  13   1
M  END
$$$$
