
     RDKit          3D

 23 25  0  0  0  0  0  0  0  0999 V2000
   14.4254   33.8886   53.6505 O   0  0  0  0  0  0  0  0  0  0  0  0
   15.5740   34.5798   54.0118 C   0  0  0  0  0  0  0  0  0  0  0  0
   15.6268   35.9483   53.4236 C   0  0  0  0  0  0  0  0  0  0  0  0
   15.0726   37.0400   54.0579 C   0  0  0  0  0  0  0  0  0  0  0  0
   15.1201   38.3116   53.5140 C   0  0  0  0  0  0  0  0  0  0  0  0
   15.7332   38.5364   52.2988 C   0  0  0  0  0  0  0  0  0  0  0  0
   15.7889   39.8726   51.7184 C   0  0  0  0  0  0  0  0  0  0  0  0
   15.8623   40.1184   50.3667 C   0  0  0  0  0  0  0  0  0  0  0  0
   15.9131   41.3939   49.8438 C   0  0  0  0  0  0  0  0  0  0  0  0
   15.9861   41.5557   48.3892 C   0  0  1  0  0  0  0  0  0  0  0  0
   14.7123   41.8933   47.7304 C   0  0  0  0  0  0  0  0  0  0  0  0
   13.8680   42.9471   48.2395 N   0  0  0  0  0  0  0  0  0  0  0  0
   14.3441   41.2247   46.6973 N   0  0  0  0  0  4  0  0  0  0  0  0
   17.0989   42.4516   47.8883 C   0  0  0  0  0  0  0  0  0  0  0  0
   17.9888   41.2473   47.8587 C   0  0  0  0  0  0  0  0  0  0  0  0
   16.7010   40.4137   47.7072 C   0  0  0  0  0  0  0  0  0  0  0  0
   15.8878   42.4394   50.7328 C   0  0  0  0  0  0  0  0  0  0  0  0
   15.8148   42.2444   52.1014 C   0  0  0  0  0  0  0  0  0  0  0  0
   15.7855   43.6128   53.1979 Cl  0  0  0  0  0  0  0  0  0  0  0  0
   15.7661   40.9501   52.5726 C   0  0  0  0  0  0  0  0  0  0  0  0
   16.2886   37.4460   51.6615 C   0  0  0  0  0  0  0  0  0  0  0  0
   16.2403   36.1683   52.2088 C   0  0  0  0  0  0  0  0  0  0  0  0
   16.9528   34.8076   51.3789 Cl  0  0  0  0  0  0  0  0  0  0  0  0
  2  1  1  6
  2  3  1  0
  3 22  2  0
  3  4  1  0
  4  5  2  0
  5  6  1  0
  6  7  1  0
  6 21  2  0
  7 20  1  0
  7  8  2  0
  8  9  1  0
 10  9  1  1
  9 17  2  0
 10 16  1  0
 10 11  1  0
 14 10  1  6
 11 12  1  0
 11 13  2  3
 15 14  1  6
 16 15  1  1
 17 18  1  0
 18 19  1  0
 18 20  2  0
 21 22  1  0
 22 23  1  0
M  CHG  1  13   1
M  END
$$$$
