
     RDKit          3D

 23 25  0  0  0  0  0  0  0  0999 V2000
   24.8305   39.4170   59.9891 O   0  0  0  0  0  0  0  0  0  0  0  0
   23.6247   39.8671   60.5096 C   0  0  0  0  0  0  0  0  0  0  0  0
   23.6338   39.9342   61.9985 C   0  0  0  0  0  0  0  0  0  0  0  0
   24.7673   39.6670   62.7367 C   0  0  0  0  0  0  0  0  0  0  0  0
   24.7785   39.7285   64.1191 C   0  0  0  0  0  0  0  0  0  0  0  0
   23.6385   40.0647   64.8195 C   0  0  0  0  0  0  0  0  0  0  0  0
   23.6410   40.1328   66.2757 C   0  0  0  0  0  0  0  0  0  0  0  0
   24.7288   39.8148   67.0557 C   0  0  0  0  0  0  0  0  0  0  0  0
   24.7042   39.8888   68.4331 C   0  0  0  0  0  0  0  0  0  0  0  0
   25.9147   39.5334   69.1786 C   0  0  1  0  0  0  0  0  0  0  0  0
   25.6938   38.7031   70.3753 C   0  0  0  0  0  0  0  0  0  0  0  0
   25.2114   37.3477   70.2616 N   0  0  0  0  0  0  0  0  0  0  0  0
   25.9192   39.2039   71.5364 N   0  0  0  0  0  4  0  0  0  0  0  0
   27.0523   38.9787   68.3478 C   0  0  0  0  0  0  0  0  0  0  0  0
   27.5216   40.3858   68.1401 C   0  0  0  0  0  0  0  0  0  0  0  0
   26.8007   40.7234   69.4601 C   0  0  0  0  0  0  0  0  0  0  0  0
   23.5332   40.2993   69.0198 C   0  0  0  0  0  0  0  0  0  0  0  0
   22.4114   40.6300   68.2792 C   0  0  0  0  0  0  0  0  0  0  0  0
   20.9372   41.1489   69.0749 Cl  0  0  0  0  0  0  0  0  0  0  0  0
   22.4883   40.5392   66.9060 C   0  0  0  0  0  0  0  0  0  0  0  0
   22.5025   40.3325   64.0836 C   0  0  0  0  0  0  0  0  0  0  0  0
   22.4921   40.2704   62.6942 C   0  0  0  0  0  0  0  0  0  0  0  0
   21.0391   40.6153   61.7900 Cl  0  0  0  0  0  0  0  0  0  0  0  0
  2  1  1  6
  2  3  1  0
  3 22  2  0
  3  4  1  0
  4  5  2  0
  5  6  1  0
  6  7  1  0
  6 21  2  0
  7 20  1  0
  7  8  2  0
  8  9  1  0
 10  9  1  6
  9 17  2  0
 10 16  1  0
 10 11  1  0
 14 10  1  6
 11 12  1  0
 11 13  2  3
 15 14  1  6
 16 15  1  1
 17 18  1  0
 18 19  1  0
 18 20  2  0
 21 22  1  0
 22 23  1  0
M  CHG  1  13   1
M  END
$$$$
