
     RDKit          3D

 23 25  0  0  0  0  0  0  0  0999 V2000
   21.1289   39.7350   59.6478 O   0  0  0  0  0  0  0  0  0  0  0  0
   21.0667   39.1356   58.3970 C   0  0  0  0  0  0  0  0  0  0  0  0
   19.7259   39.2761   57.7615 C   0  0  0  0  0  0  0  0  0  0  0  0
   18.8876   40.3333   58.0461 C   0  0  0  0  0  0  0  0  0  0  0  0
   17.6423   40.4662   57.4575 C   0  0  0  0  0  0  0  0  0  0  0  0
   17.1874   39.5313   56.5507 C   0  0  0  0  0  0  0  0  0  0  0  0
   15.8773   39.6634   55.9250 C   0  0  0  0  0  0  0  0  0  0  0  0
   15.3357   40.8639   55.5271 C   0  0  0  0  0  0  0  0  0  0  0  0
   14.0929   40.9604   54.9362 C   0  0  0  0  0  0  0  0  0  0  0  0
   13.6018   42.2837   54.5425 C   0  0  1  0  0  0  0  0  0  0  0  0
   13.3544   43.2179   55.6545 C   0  0  0  0  0  0  0  0  0  0  0  0
   12.2126   43.0559   56.5220 N   0  0  0  0  0  0  0  0  0  0  0  0
   14.1612   44.2000   55.8398 N   0  0  0  0  0  4  0  0  0  0  0  0
   14.3801   42.9652   53.4372 C   0  0  0  0  0  0  0  0  0  0  0  0
   13.4886   42.2754   52.4510 C   0  0  0  0  0  0  0  0  0  0  0  0
   12.4404   42.2158   53.5797 C   0  0  0  0  0  0  0  0  0  0  0  0
   13.3924   39.7946   54.7512 C   0  0  0  0  0  0  0  0  0  0  0  0
   13.8935   38.5623   55.1344 C   0  0  0  0  0  0  0  0  0  0  0  0
   12.9602   37.0999   54.8774 Cl  0  0  0  0  0  0  0  0  0  0  0  0
   15.1403   38.5205   55.7204 C   0  0  0  0  0  0  0  0  0  0  0  0
   18.0238   38.4721   56.2639 C   0  0  0  0  0  0  0  0  0  0  0  0
   19.2753   38.3394   56.8560 C   0  0  0  0  0  0  0  0  0  0  0  0
   20.3120   36.9881   56.4727 Cl  0  0  0  0  0  0  0  0  0  0  0  0
  2  1  1  6
  2  3  1  0
  3 22  2  0
  3  4  1  0
  4  5  2  0
  5  6  1  0
  6  7  1  0
  6 21  2  0
  7 20  1  0
  7  8  2  0
  8  9  1  0
 10  9  1  1
  9 17  2  0
 10 16  1  0
 10 11  1  0
 14 10  1  6
 11 12  1  0
 11 13  2  3
 15 14  1  6
 16 15  1  1
 17 18  1  0
 18 19  1  0
 18 20  2  0
 21 22  1  0
 22 23  1  0
M  CHG  1  13   1
M  END
$$$$
