
     RDKit          3D

 23 25  0  0  0  0  0  0  0  0999 V2000
   35.8882   24.7057   47.0674 O   0  0  0  0  0  0  0  0  0  0  0  0
   34.8197   23.9246   47.4867 C   0  0  0  0  0  0  0  0  0  0  0  0
   34.1452   24.4792   48.6945 C   0  0  0  0  0  0  0  0  0  0  0  0
   34.5594   25.6511   49.2916 C   0  0  0  0  0  0  0  0  0  0  0  0
   33.9351   26.1682   50.4131 C   0  0  0  0  0  0  0  0  0  0  0  0
   32.8589   25.5199   50.9831 C   0  0  0  0  0  0  0  0  0  0  0  0
   32.1943   26.0574   52.1640 C   0  0  0  0  0  0  0  0  0  0  0  0
   32.0992   25.3868   53.3616 C   0  0  0  0  0  0  0  0  0  0  0  0
   31.4647   25.9195   54.4647 C   0  0  0  0  0  0  0  0  0  0  0  0
   31.4178   25.1306   55.6987 C   0  0  1  0  0  0  0  0  0  0  0  0
   30.3307   24.1388   55.7688 C   0  0  0  0  0  0  0  0  0  0  0  0
   29.0100   24.4468   55.2754 N   0  0  0  0  0  0  0  0  0  0  0  0
   30.5630   22.9897   56.2936 N   0  0  0  0  0  4  0  0  0  0  0  0
   32.7317   24.5123   56.1270 C   0  0  0  0  0  0  0  0  0  0  0  0
   33.0260   25.7758   56.8756 C   0  0  0  0  0  0  0  0  0  0  0  0
   31.4998   25.9825   56.9429 C   0  0  0  0  0  0  0  0  0  0  0  0
   30.9161   27.1705   54.3312 C   0  0  0  0  0  0  0  0  0  0  0  0
   30.9848   27.8857   53.1478 C   0  0  0  0  0  0  0  0  0  0  0  0
   30.2678   29.4814   53.0259 Cl  0  0  0  0  0  0  0  0  0  0  0  0
   31.6301   27.3084   52.0753 C   0  0  0  0  0  0  0  0  0  0  0  0
   32.4421   24.3469   50.3881 C   0  0  0  0  0  0  0  0  0  0  0  0
   33.0703   23.8279   49.2609 C   0  0  0  0  0  0  0  0  0  0  0  0
   32.5197   22.3414   48.5296 Cl  0  0  0  0  0  0  0  0  0  0  0  0
  2  1  1  6
  2  3  1  0
  3 22  2  0
  3  4  1  0
  4  5  2  0
  5  6  1  0
  6  7  1  0
  6 21  2  0
  7 20  1  0
  7  8  2  0
  8  9  1  0
 10  9  1  6
  9 17  2  0
 10 16  1  0
 10 11  1  0
 14 10  1  6
 11 12  1  0
 11 13  2  3
 15 14  1  6
 16 15  1  1
 17 18  1  0
 18 19  1  0
 18 20  2  0
 21 22  1  0
 22 23  1  0
M  CHG  1  13   1
M  END
$$$$
