
     RDKit          3D

 23 25  0  0  0  0  0  0  0  0999 V2000
   28.3136   40.9485   61.5359 O   0  0  0  0  0  0  0  0  0  0  0  0
   27.0703   40.3511   61.6943 C   0  0  0  0  0  0  0  0  0  0  0  0
   26.6504   40.2745   63.1223 C   0  0  0  0  0  0  0  0  0  0  0  0
   27.5458   40.4347   64.1586 C   0  0  0  0  0  0  0  0  0  0  0  0
   27.1586   40.3640   65.4853 C   0  0  0  0  0  0  0  0  0  0  0  0
   25.8425   40.1272   65.8243 C   0  0  0  0  0  0  0  0  0  0  0  0
   25.4251   40.0518   67.2190 C   0  0  0  0  0  0  0  0  0  0  0  0
   26.2815   39.7822   68.2616 C   0  0  0  0  0  0  0  0  0  0  0  0
   25.8598   39.7173   69.5735 C   0  0  0  0  0  0  0  0  0  0  0  0
   26.8475   39.4277   70.6165 C   0  0  1  0  0  0  0  0  0  0  0  0
   27.5244   40.6064   71.1848 C   0  0  0  0  0  0  0  0  0  0  0  0
   26.8468   41.8765   71.2857 N   0  0  0  0  0  0  0  0  0  0  0  0
   28.7422   40.5007   71.5793 N   0  0  0  0  0  4  0  0  0  0  0  0
   26.3796   38.4997   71.7173 C   0  0  0  0  0  0  0  0  0  0  0  0
   26.8418   37.3493   70.8769 C   0  0  0  0  0  0  0  0  0  0  0  0
   27.8197   38.3428   70.2187 C   0  0  0  0  0  0  0  0  0  0  0  0
   24.5267   39.9351   69.8169 C   0  0  0  0  0  0  0  0  0  0  0  0
   23.6252   40.2097   68.8028 C   0  0  0  0  0  0  0  0  0  0  0  0
   21.9305   40.4805   69.1638 Cl  0  0  0  0  0  0  0  0  0  0  0  0
   24.0976   40.2633   67.5091 C   0  0  0  0  0  0  0  0  0  0  0  0
   24.9440   39.9663   64.7896 C   0  0  0  0  0  0  0  0  0  0  0  0
   25.3341   40.0374   63.4564 C   0  0  0  0  0  0  0  0  0  0  0  0
   24.1740   39.8303   62.1683 Cl  0  0  0  0  0  0  0  0  0  0  0  0
  2  1  1  6
  2  3  1  0
  3 22  2  0
  3  4  1  0
  4  5  2  0
  5  6  1  0
  6  7  1  0
  6 21  2  0
  7 20  1  0
  7  8  2  0
  8  9  1  0
 10  9  1  6
  9 17  2  0
 10 16  1  0
 10 11  1  0
 14 10  1  6
 11 12  1  0
 11 13  2  3
 15 14  1  6
 16 15  1  1
 17 18  1  0
 18 19  1  0
 18 20  2  0
 21 22  1  0
 22 23  1  0
M  CHG  1  13   1
M  END
$$$$
