
     RDKit          3D

 23 25  0  0  0  0  0  0  0  0999 V2000
   32.4233   43.1495   62.9136 O   0  0  0  0  0  0  0  0  0  0  0  0
   32.4303   41.7612   62.8993 C   0  0  0  0  0  0  0  0  0  0  0  0
   31.3923   41.1748   63.7938 C   0  0  0  0  0  0  0  0  0  0  0  0
   31.3907   41.3930   65.1553 C   0  0  0  0  0  0  0  0  0  0  0  0
   30.4282   40.8497   65.9881 C   0  0  0  0  0  0  0  0  0  0  0  0
   29.4199   40.0581   65.4783 C   0  0  0  0  0  0  0  0  0  0  0  0
   28.4012   39.4822   66.3477 C   0  0  0  0  0  0  0  0  0  0  0  0
   28.6727   38.8965   67.5627 C   0  0  0  0  0  0  0  0  0  0  0  0
   27.6886   38.3594   68.3666 C   0  0  0  0  0  0  0  0  0  0  0  0
   28.0751   37.7598   69.6466 C   0  0  1  0  0  0  0  0  0  0  0  0
   27.9076   38.6301   70.8235 C   0  0  0  0  0  0  0  0  0  0  0  0
   26.5946   38.9699   71.3165 N   0  0  0  0  0  0  0  0  0  0  0  0
   28.9495   39.1049   71.4057 N   0  0  0  0  0  4  0  0  0  0  0  0
   27.5095   36.3820   69.9180 C   0  0  0  0  0  0  0  0  0  0  0  0
   28.7041   35.8078   69.2205 C   0  0  0  0  0  0  0  0  0  0  0  0
   29.4371   37.1091   69.6020 C   0  0  0  0  0  0  0  0  0  0  0  0
   26.3964   38.4270   67.9089 C   0  0  0  0  0  0  0  0  0  0  0  0
   26.0718   39.0056   66.6938 C   0  0  0  0  0  0  0  0  0  0  0  0
   24.4052   39.0678   66.1514 Cl  0  0  0  0  0  0  0  0  0  0  0  0
   27.0923   39.5278   65.9285 C   0  0  0  0  0  0  0  0  0  0  0  0
   29.4188   39.8378   64.1163 C   0  0  0  0  0  0  0  0  0  0  0  0
   30.3867   40.3841   63.2801 C   0  0  0  0  0  0  0  0  0  0  0  0
   30.3590   40.0880   61.5598 Cl  0  0  0  0  0  0  0  0  0  0  0  0
  2  1  1  6
  2  3  1  0
  3 22  2  0
  3  4  1  0
  4  5  2  0
  5  6  1  0
  6  7  1  0
  6 21  2  0
  7 20  1  0
  7  8  2  0
  8  9  1  0
 10  9  1  6
  9 17  2  0
 10 16  1  0
 10 11  1  0
 14 10  1  6
 11 12  1  0
 11 13  2  3
 15 14  1  6
 16 15  1  1
 17 18  1  0
 18 19  1  0
 18 20  2  0
 21 22  1  0
 22 23  1  0
M  CHG  1  13   1
M  END
$$$$
