
     RDKit          3D

 23 25  0  0  0  0  0  0  0  0999 V2000
   17.8249   39.0855   48.0877 O   0  0  0  0  0  0  0  0  0  0  0  0
   18.6570   39.8398   48.9039 C   0  0  0  0  0  0  0  0  0  0  0  0
   18.1604   39.9221   50.3068 C   0  0  0  0  0  0  0  0  0  0  0  0
   17.2244   40.8556   50.6989 C   0  0  0  0  0  0  0  0  0  0  0  0
   16.7617   40.9343   52.0007 C   0  0  0  0  0  0  0  0  0  0  0  0
   17.2274   40.0681   52.9682 C   0  0  0  0  0  0  0  0  0  0  0  0
   16.7453   40.1429   54.3420 C   0  0  0  0  0  0  0  0  0  0  0  0
   15.4539   40.4721   54.6839 C   0  0  0  0  0  0  0  0  0  0  0  0
   15.0235   40.5349   55.9931 C   0  0  0  0  0  0  0  0  0  0  0  0
   13.6270   40.8909   56.2584 C   0  0  1  0  0  0  0  0  0  0  0  0
   12.6598   40.4365   55.2442 C   0  0  0  0  0  0  0  0  0  0  0  0
   12.3313   39.0383   55.1035 N   0  0  0  0  0  0  0  0  0  0  0  0
   12.1163   41.3004   54.4645 N   0  0  0  0  0  4  0  0  0  0  0  0
   13.1270   40.5733   57.6516 C   0  0  0  0  0  0  0  0  0  0  0  0
   13.6148   41.9227   58.0812 C   0  0  0  0  0  0  0  0  0  0  0  0
   13.4499   42.3490   56.6090 C   0  0  0  0  0  0  0  0  0  0  0  0
   15.9436   40.2523   56.9716 C   0  0  0  0  0  0  0  0  0  0  0  0
   17.2544   39.9163   56.6792 C   0  0  0  0  0  0  0  0  0  0  0  0
   18.3939   39.5639   57.9648 Cl  0  0  0  0  0  0  0  0  0  0  0  0
   17.6336   39.8676   55.3549 C   0  0  0  0  0  0  0  0  0  0  0  0
   18.1642   39.1329   52.5791 C   0  0  0  0  0  0  0  0  0  0  0  0
   18.6287   39.0546   51.2704 C   0  0  0  0  0  0  0  0  0  0  0  0
   19.8145   37.8598   50.8076 Cl  0  0  0  0  0  0  0  0  0  0  0  0
  2  1  1  6
  2  3  1  0
  3 22  2  0
  3  4  1  0
  4  5  2  0
  5  6  1  0
  6  7  1  0
  6 21  2  0
  7 20  1  0
  7  8  2  0
  8  9  1  0
 10  9  1  6
  9 17  2  0
 10 16  1  0
 10 11  1  0
 14 10  1  6
 11 12  1  0
 11 13  2  3
 15 14  1  6
 16 15  1  1
 17 18  1  0
 18 19  1  0
 18 20  2  0
 21 22  1  0
 22 23  1  0
M  CHG  1  13   1
M  END
$$$$
