
     RDKit          3D

 23 25  0  0  0  0  0  0  0  0999 V2000
   21.1336   40.5049   66.0891 O   0  0  0  0  0  0  0  0  0  0  0  0
   19.8582   40.9730   65.8029 C   0  0  0  0  0  0  0  0  0  0  0  0
   19.4626   40.7258   64.3874 C   0  0  0  0  0  0  0  0  0  0  0  0
   20.3878   40.4260   63.4100 C   0  0  0  0  0  0  0  0  0  0  0  0
   20.0232   40.1961   62.0950 C   0  0  0  0  0  0  0  0  0  0  0  0
   18.7004   40.2596   61.7085 C   0  0  0  0  0  0  0  0  0  0  0  0
   18.3067   40.0181   60.3257 C   0  0  0  0  0  0  0  0  0  0  0  0
   19.2001   39.8360   59.2953 C   0  0  0  0  0  0  0  0  0  0  0  0
   18.8001   39.6082   57.9949 C   0  0  0  0  0  0  0  0  0  0  0  0
   19.8263   39.4220   56.9655 C   0  0  1  0  0  0  0  0  0  0  0  0
   20.6791   38.2330   57.1371 C   0  0  0  0  0  0  0  0  0  0  0  0
   20.1273   36.9026   57.0470 N   0  0  0  0  0  0  0  0  0  0  0  0
   21.9292   38.3887   57.3877 N   0  0  0  0  0  4  0  0  0  0  0  0
   19.3413   39.5279   55.5353 C   0  0  0  0  0  0  0  0  0  0  0  0
   19.5981   41.0016   55.6090 C   0  0  0  0  0  0  0  0  0  0  0  0
   20.6305   40.6735   56.7058 C   0  0  0  0  0  0  0  0  0  0  0  0
   17.4502   39.5672   57.7503 C   0  0  0  0  0  0  0  0  0  0  0  0
   16.5115   39.7447   58.7523 C   0  0  0  0  0  0  0  0  0  0  0  0
   14.7967   39.6841   58.3902 Cl  0  0  0  0  0  0  0  0  0  0  0  0
   16.9635   39.9692   60.0349 C   0  0  0  0  0  0  0  0  0  0  0  0
   17.7721   40.5595   62.6841 C   0  0  0  0  0  0  0  0  0  0  0  0
   18.1395   40.7905   64.0056 C   0  0  0  0  0  0  0  0  0  0  0  0
   16.9419   41.1675   65.2186 Cl  0  0  0  0  0  0  0  0  0  0  0  0
  2  1  1  6
  2  3  1  0
  3 22  2  0
  3  4  1  0
  4  5  2  0
  5  6  1  0
  6  7  1  0
  6 21  2  0
  7 20  1  0
  7  8  2  0
  8  9  1  0
 10  9  1  1
  9 17  2  0
 10 16  1  0
 10 11  1  0
 14 10  1  6
 11 12  1  0
 11 13  2  3
 15 14  1  6
 16 15  1  1
 17 18  1  0
 18 19  1  0
 18 20  2  0
 21 22  1  0
 22 23  1  0
M  CHG  1  13   1
M  END
$$$$
