
     RDKit          3D

 23 25  0  0  0  0  0  0  0  0999 V2000
   23.5545   41.3297   71.1924 O   0  0  0  0  0  0  0  0  0  0  0  0
   22.3753   40.7585   70.7333 C   0  0  0  0  0  0  0  0  0  0  0  0
   21.2540   40.9029   71.7045 C   0  0  0  0  0  0  0  0  0  0  0  0
   21.3883   41.6146   72.8778 C   0  0  0  0  0  0  0  0  0  0  0  0
   20.3490   41.7502   73.7813 C   0  0  0  0  0  0  0  0  0  0  0  0
   19.1218   41.1693   73.5369 C   0  0  0  0  0  0  0  0  0  0  0  0
   18.0207   41.3074   74.4824 C   0  0  0  0  0  0  0  0  0  0  0  0
   18.1611   41.1832   75.8454 C   0  0  0  0  0  0  0  0  0  0  0  0
   17.1016   41.3195   76.7183 C   0  0  0  0  0  0  0  0  0  0  0  0
   17.3504   41.1737   78.1551 C   0  0  1  0  0  0  0  0  0  0  0  0
   18.0341   42.3125   78.7924 C   0  0  0  0  0  0  0  0  0  0  0  0
   17.5234   43.6557   78.6597 N   0  0  0  0  0  0  0  0  0  0  0  0
   19.1106   42.1032   79.4612 N   0  0  0  0  0  4  0  0  0  0  0  0
   16.1596   40.7368   78.9815 C   0  0  0  0  0  0  0  0  0  0  0  0
   16.5533   39.3176   78.7090 C   0  0  0  0  0  0  0  0  0  0  0  0
   17.9859   39.8504   78.5090 C   0  0  0  0  0  0  0  0  0  0  0  0
   15.8703   41.5896   76.1753 C   0  0  0  0  0  0  0  0  0  0  0  0
   15.6772   41.7235   74.8110 C   0  0  0  0  0  0  0  0  0  0  0  0
   14.0841   42.0685   74.1643 Cl  0  0  0  0  0  0  0  0  0  0  0  0
   16.7688   41.5781   73.9820 C   0  0  0  0  0  0  0  0  0  0  0  0
   18.9841   40.4563   72.3637 C   0  0  0  0  0  0  0  0  0  0  0  0
   20.0294   40.3205   71.4563 C   0  0  0  0  0  0  0  0  0  0  0  0
   19.8250   39.4124   69.9793 Cl  0  0  0  0  0  0  0  0  0  0  0  0
  2  1  1  6
  2  3  1  0
  3 22  2  0
  3  4  1  0
  4  5  2  0
  5  6  1  0
  6  7  1  0
  6 21  2  0
  7 20  1  0
  7  8  2  0
  8  9  1  0
 10  9  1  6
  9 17  2  0
 10 16  1  0
 10 11  1  0
 14 10  1  6
 11 12  1  0
 11 13  2  3
 15 14  1  6
 16 15  1  1
 17 18  1  0
 18 19  1  0
 18 20  2  0
 21 22  1  0
 22 23  1  0
M  CHG  1  13   1
M  END
$$$$
