
     RDKit          3D

 23 25  0  0  0  0  0  0  0  0999 V2000
   32.8453   35.1761   66.0767 O   0  0  0  0  0  0  0  0  0  0  0  0
   31.7284   34.5803   66.6469 C   0  0  0  0  0  0  0  0  0  0  0  0
   30.6314   35.5546   66.9087 C   0  0  0  0  0  0  0  0  0  0  0  0
   30.3657   36.6051   66.0559 C   0  0  0  0  0  0  0  0  0  0  0  0
   29.3478   37.5112   66.2966 C   0  0  0  0  0  0  0  0  0  0  0  0
   28.5496   37.3943   67.4157 C   0  0  0  0  0  0  0  0  0  0  0  0
   27.4745   38.3435   67.6772 C   0  0  0  0  0  0  0  0  0  0  0  0
   27.3767   39.0929   68.8269 C   0  0  0  0  0  0  0  0  0  0  0  0
   26.3482   39.9852   69.0486 C   0  0  0  0  0  0  0  0  0  0  0  0
   26.3315   40.7420   70.3033 C   0  0  1  0  0  0  0  0  0  0  0  0
   25.1359   40.5425   71.1408 C   0  0  0  0  0  0  0  0  0  0  0  0
   24.8853   39.2784   71.7904 N   0  0  0  0  0  0  0  0  0  0  0  0
   24.2982   41.5064   71.2777 N   0  0  0  0  0  4  0  0  0  0  0  0
   27.5899   40.6454   71.1394 C   0  0  0  0  0  0  0  0  0  0  0  0
   28.1300   41.8133   70.3729 C   0  0  0  0  0  0  0  0  0  0  0  0
   26.6616   42.2030   70.1115 C   0  0  0  0  0  0  0  0  0  0  0  0
   25.3995   40.1082   68.0644 C   0  0  0  0  0  0  0  0  0  0  0  0
   25.4530   39.3767   66.8902 C   0  0  0  0  0  0  0  0  0  0  0  0
   24.2164   39.5684   65.6617 Cl  0  0  0  0  0  0  0  0  0  0  0  0
   26.5015   38.4988   66.7178 C   0  0  0  0  0  0  0  0  0  0  0  0
   28.8130   36.3443   68.2712 C   0  0  0  0  0  0  0  0  0  0  0  0
   29.8363   35.4341   68.0285 C   0  0  0  0  0  0  0  0  0  0  0  0
   30.1454   34.1147   69.1292 Cl  0  0  0  0  0  0  0  0  0  0  0  0
  2  1  1  6
  2  3  1  0
  3 22  2  0
  3  4  1  0
  4  5  2  0
  5  6  1  0
  6  7  1  0
  6 21  2  0
  7 20  1  0
  7  8  2  0
  8  9  1  0
 10  9  1  6
  9 17  2  0
 10 16  1  0
 10 11  1  0
 14 10  1  6
 11 12  1  0
 11 13  2  3
 15 14  1  6
 16 15  1  1
 17 18  1  0
 18 19  1  0
 18 20  2  0
 21 22  1  0
 22 23  1  0
M  CHG  1  13   1
M  END
$$$$
