
     RDKit          3D

 23 25  0  0  0  0  0  0  0  0999 V2000
   20.8981   41.1130   70.0453 O   0  0  0  0  0  0  0  0  0  0  0  0
   21.8315   40.1501   70.4049 C   0  0  0  0  0  0  0  0  0  0  0  0
   22.9864   40.0938   69.4644 C   0  0  0  0  0  0  0  0  0  0  0  0
   22.8410   39.7103   68.1480 C   0  0  0  0  0  0  0  0  0  0  0  0
   23.9115   39.6571   67.2727 C   0  0  0  0  0  0  0  0  0  0  0  0
   25.1826   39.9910   67.6921 C   0  0  0  0  0  0  0  0  0  0  0  0
   26.3163   39.9387   66.7771 C   0  0  0  0  0  0  0  0  0  0  0  0
   27.6156   39.7287   67.1781 C   0  0  0  0  0  0  0  0  0  0  0  0
   28.6704   39.6831   66.2902 C   0  0  0  0  0  0  0  0  0  0  0  0
   30.0198   39.4501   66.8121 C   0  0  1  0  0  0  0  0  0  0  0  0
   30.2292   38.1373   67.4472 C   0  0  0  0  0  0  0  0  0  0  0  0
   30.1772   36.9201   66.6737 N   0  0  0  0  0  0  0  0  0  0  0  0
   30.4440   38.0798   68.7122 N   0  0  0  0  0  4  0  0  0  0  0  0
   31.1513   39.7666   65.8574 C   0  0  0  0  0  0  0  0  0  0  0  0
   31.1295   41.1720   66.3751 C   0  0  0  0  0  0  0  0  0  0  0  0
   30.5229   40.5889   67.6667 C   0  0  0  0  0  0  0  0  0  0  0  0
   28.3806   39.8576   64.9600 C   0  0  0  0  0  0  0  0  0  0  0  0
   27.0904   40.0722   64.5064 C   0  0  0  0  0  0  0  0  0  0  0  0
   26.7700   40.2903   62.7960 Cl  0  0  0  0  0  0  0  0  0  0  0  0
   26.0720   40.1088   65.4345 C   0  0  0  0  0  0  0  0  0  0  0  0
   25.3316   40.3750   69.0089 C   0  0  0  0  0  0  0  0  0  0  0  0
   24.2550   40.4281   69.8880 C   0  0  0  0  0  0  0  0  0  0  0  0
   24.4744   40.9186   71.5490 Cl  0  0  0  0  0  0  0  0  0  0  0  0
  2  1  1  6
  2  3  1  0
  3 22  2  0
  3  4  1  0
  4  5  2  0
  5  6  1  0
  6  7  1  0
  6 21  2  0
  7 20  1  0
  7  8  2  0
  8  9  1  0
 10  9  1  6
  9 17  2  0
 10 16  1  0
 10 11  1  0
 14 10  1  6
 11 12  1  0
 11 13  2  3
 15 14  1  6
 16 15  1  1
 17 18  1  0
 18 19  1  0
 18 20  2  0
 21 22  1  0
 22 23  1  0
M  CHG  1  13   1
M  END
$$$$
