
     RDKit          3D

 23 25  0  0  0  0  0  0  0  0999 V2000
   23.2896   40.2854   61.2486 O   0  0  0  0  0  0  0  0  0  0  0  0
   24.5998   40.5902   61.5923 C   0  0  0  0  0  0  0  0  0  0  0  0
   24.9197   40.2298   63.0026 C   0  0  0  0  0  0  0  0  0  0  0  0
   23.9741   39.7024   63.8564 C   0  0  0  0  0  0  0  0  0  0  0  0
   24.2684   39.3670   65.1663 C   0  0  0  0  0  0  0  0  0  0  0  0
   25.5382   39.5509   65.6731 C   0  0  0  0  0  0  0  0  0  0  0  0
   25.8578   39.1998   67.0515 C   0  0  0  0  0  0  0  0  0  0  0  0
   27.0836   38.7242   67.4565 C   0  0  0  0  0  0  0  0  0  0  0  0
   27.3598   38.3999   68.7686 C   0  0  0  0  0  0  0  0  0  0  0  0
   28.6972   37.9041   69.1044 C   0  0  1  0  0  0  0  0  0  0  0  0
   29.7907   38.8742   68.9211 C   0  0  0  0  0  0  0  0  0  0  0  0
   30.6357   38.8303   67.7521 N   0  0  0  0  0  0  0  0  0  0  0  0
   30.0016   39.7600   69.8270 N   0  0  0  0  0  4  0  0  0  0  0  0
   28.8179   37.2123   70.4457 C   0  0  0  0  0  0  0  0  0  0  0  0
   28.4495   35.9311   69.7629 C   0  0  0  0  0  0  0  0  0  0  0  0
   29.0029   36.5672   68.4723 C   0  0  0  0  0  0  0  0  0  0  0  0
   26.3510   38.5694   69.6838 C   0  0  0  0  0  0  0  0  0  0  0  0
   25.1006   39.0443   69.3265 C   0  0  0  0  0  0  0  0  0  0  0  0
   23.8431   39.2435   70.5325 Cl  0  0  0  0  0  0  0  0  0  0  0  0
   24.8762   39.3538   68.0022 C   0  0  0  0  0  0  0  0  0  0  0  0
   26.4867   40.0787   64.8214 C   0  0  0  0  0  0  0  0  0  0  0  0
   26.1900   40.4156   63.5050 C   0  0  0  0  0  0  0  0  0  0  0  0
   27.4117   41.0812   62.4504 Cl  0  0  0  0  0  0  0  0  0  0  0  0
  2  1  1  6
  2  3  1  0
  3 22  2  0
  3  4  1  0
  4  5  2  0
  5  6  1  0
  6  7  1  0
  6 21  2  0
  7 20  1  0
  7  8  2  0
  8  9  1  0
 10  9  1  6
  9 17  2  0
 10 16  1  0
 10 11  1  0
 14 10  1  6
 11 12  1  0
 11 13  2  3
 15 14  1  6
 16 15  1  1
 17 18  1  0
 18 19  1  0
 18 20  2  0
 21 22  1  0
 22 23  1  0
M  CHG  1  13   1
M  END
$$$$
