
     RDKit          3D

 23 25  0  0  0  0  0  0  0  0999 V2000
   21.0404   39.0325   38.1033 O   0  0  0  0  0  0  0  0  0  0  0  0
   21.0127   39.7598   39.2856 C   0  0  0  0  0  0  0  0  0  0  0  0
   22.1310   40.7406   39.3800 C   0  0  0  0  0  0  0  0  0  0  0  0
   21.9839   42.0579   39.0000 C   0  0  0  0  0  0  0  0  0  0  0  0
   23.0205   42.9706   39.0866 C   0  0  0  0  0  0  0  0  0  0  0  0
   24.2576   42.5896   39.5637 C   0  0  0  0  0  0  0  0  0  0  0  0
   25.3553   43.5441   39.6593 C   0  0  0  0  0  0  0  0  0  0  0  0
   25.2345   44.8827   39.3649 C   0  0  0  0  0  0  0  0  0  0  0  0
   26.2903   45.7649   39.4647 C   0  0  0  0  0  0  0  0  0  0  0  0
   26.0634   47.1742   39.1331 C   0  0  1  0  0  0  0  0  0  0  0  0
   25.3939   47.9654   40.1801 C   0  0  0  0  0  0  0  0  0  0  0  0
   25.9442   48.0546   41.5112 N   0  0  0  0  0  0  0  0  0  0  0  0
   24.2946   48.5693   39.9033 N   0  0  0  0  0  4  0  0  0  0  0  0
   27.2653   47.9175   38.5901 C   0  0  0  0  0  0  0  0  0  0  0  0
   26.8621   47.4685   37.2193 C   0  0  0  0  0  0  0  0  0  0  0  0
   25.4285   47.3625   37.7760 C   0  0  0  0  0  0  0  0  0  0  0  0
   27.4971   45.2573   39.8768 C   0  0  0  0  0  0  0  0  0  0  0  0
   27.6699   43.9186   40.1844 C   0  0  0  0  0  0  0  0  0  0  0  0
   29.2322   43.3168   40.7064 Cl  0  0  0  0  0  0  0  0  0  0  0  0
   26.5831   43.0788   40.0683 C   0  0  0  0  0  0  0  0  0  0  0  0
   24.4081   41.2720   39.9447 C   0  0  0  0  0  0  0  0  0  0  0  0
   23.3656   40.3554   39.8572 C   0  0  0  0  0  0  0  0  0  0  0  0
   23.5859   38.6944   40.3475 Cl  0  0  0  0  0  0  0  0  0  0  0  0
  2  1  1  6
  2  3  1  0
  3 22  2  0
  3  4  1  0
  4  5  2  0
  5  6  1  0
  6  7  1  0
  6 21  2  0
  7 20  1  0
  7  8  2  0
  8  9  1  0
 10  9  1  1
  9 17  2  0
 10 16  1  0
 10 11  1  0
 14 10  1  6
 11 12  1  0
 11 13  2  3
 15 14  1  6
 16 15  1  1
 17 18  1  0
 18 19  1  0
 18 20  2  0
 21 22  1  0
 22 23  1  0
M  CHG  1  13   1
M  END
$$$$
