
     RDKit          3D

 23 25  0  0  0  0  0  0  0  0999 V2000
   14.8905   41.8043   65.9728 O   0  0  0  0  0  0  0  0  0  0  0  0
   16.1156   41.8399   66.6251 C   0  0  0  0  0  0  0  0  0  0  0  0
   17.2655   41.6711   65.6920 C   0  0  0  0  0  0  0  0  0  0  0  0
   17.0881   41.4826   64.3376 C   0  0  0  0  0  0  0  0  0  0  0  0
   18.1539   41.3256   63.4690 C   0  0  0  0  0  0  0  0  0  0  0  0
   19.4525   41.3524   63.9340 C   0  0  0  0  0  0  0  0  0  0  0  0
   20.5816   41.1886   63.0265 C   0  0  0  0  0  0  0  0  0  0  0  0
   20.5721   40.3511   61.9349 C   0  0  0  0  0  0  0  0  0  0  0  0
   21.6552   40.2155   61.0913 C   0  0  0  0  0  0  0  0  0  0  0  0
   21.5489   39.3010   59.9513 C   0  0  1  0  0  0  0  0  0  0  0  0
   22.3048   38.0433   60.0829 C   0  0  0  0  0  0  0  0  0  0  0  0
   23.6213   37.9031   59.5087 N   0  0  0  0  0  0  0  0  0  0  0  0
   21.7720   37.0536   60.7046 N   0  0  0  0  0  4  0  0  0  0  0  0
   20.1419   39.0286   59.4634 C   0  0  0  0  0  0  0  0  0  0  0  0
   20.2733   40.2230   58.5692 C   0  0  0  0  0  0  0  0  0  0  0  0
   21.7950   39.9836   58.6269 C   0  0  0  0  0  0  0  0  0  0  0  0
   22.7727   40.9590   61.3784 C   0  0  0  0  0  0  0  0  0  0  0  0
   22.8321   41.8154   62.4645 C   0  0  0  0  0  0  0  0  0  0  0  0
   24.2832   42.7445   62.7906 Cl  0  0  0  0  0  0  0  0  0  0  0  0
   21.7226   41.9144   63.2764 C   0  0  0  0  0  0  0  0  0  0  0  0
   19.6334   41.5406   65.2888 C   0  0  0  0  0  0  0  0  0  0  0  0
   18.5615   41.6983   66.1611 C   0  0  0  0  0  0  0  0  0  0  0  0
   18.8217   41.9355   67.8710 Cl  0  0  0  0  0  0  0  0  0  0  0  0
  2  1  1  6
  2  3  1  0
  3 22  2  0
  3  4  1  0
  4  5  2  0
  5  6  1  0
  6  7  1  0
  6 21  2  0
  7 20  1  0
  7  8  2  0
  8  9  1  0
 10  9  1  1
  9 17  2  0
 10 16  1  0
 10 11  1  0
 14 10  1  6
 11 12  1  0
 11 13  2  3
 15 14  1  6
 16 15  1  1
 17 18  1  0
 18 19  1  0
 18 20  2  0
 21 22  1  0
 22 23  1  0
M  CHG  1  13   1
M  END
$$$$
