
     RDKit          3D

 23 25  0  0  0  0  0  0  0  0999 V2000
   23.1501   39.5705   72.5556 O   0  0  0  0  0  0  0  0  0  0  0  0
   22.5863   39.6781   71.2914 C   0  0  0  0  0  0  0  0  0  0  0  0
   23.6116   39.7437   70.2117 C   0  0  0  0  0  0  0  0  0  0  0  0
   24.9163   39.3466   70.4154 C   0  0  0  0  0  0  0  0  0  0  0  0
   25.8702   39.4064   69.4147 C   0  0  0  0  0  0  0  0  0  0  0  0
   25.5454   39.8726   68.1576 C   0  0  0  0  0  0  0  0  0  0  0  0
   26.5434   39.9386   67.0970 C   0  0  0  0  0  0  0  0  0  0  0  0
   27.8921   40.0899   67.3223 C   0  0  0  0  0  0  0  0  0  0  0  0
   28.8158   40.1486   66.2993 C   0  0  0  0  0  0  0  0  0  0  0  0
   30.2325   40.3074   66.6386 C   0  0  1  0  0  0  0  0  0  0  0  0
   31.0832   39.1415   66.3430 C   0  0  0  0  0  0  0  0  0  0  0  0
   30.7384   37.8270   66.8286 N   0  0  0  0  0  0  0  0  0  0  0  0
   32.1563   39.3061   65.6566 N   0  0  0  0  0  4  0  0  0  0  0  0
   30.8826   41.5811   66.1417 C   0  0  0  0  0  0  0  0  0  0  0  0
   30.4431   42.2428   67.4115 C   0  0  0  0  0  0  0  0  0  0  0  0
   30.4450   40.8342   68.0378 C   0  0  0  0  0  0  0  0  0  0  0  0
   28.3395   40.0493   65.0159 C   0  0  0  0  0  0  0  0  0  0  0  0
   26.9922   39.8964   64.7369 C   0  0  0  0  0  0  0  0  0  0  0  0
   26.4317   39.7744   63.0797 Cl  0  0  0  0  0  0  0  0  0  0  0  0
   26.1106   39.8433   65.7951 C   0  0  0  0  0  0  0  0  0  0  0  0
   24.2407   40.2709   67.9506 C   0  0  0  0  0  0  0  0  0  0  0  0
   23.2826   40.2105   68.9570 C   0  0  0  0  0  0  0  0  0  0  0  0
   21.6389   40.7212   68.6648 Cl  0  0  0  0  0  0  0  0  0  0  0  0
  2  1  1  6
  2  3  1  0
  3 22  2  0
  3  4  1  0
  4  5  2  0
  5  6  1  0
  6  7  1  0
  6 21  2  0
  7 20  1  0
  7  8  2  0
  8  9  1  0
 10  9  1  6
  9 17  2  0
 10 16  1  0
 10 11  1  0
 14 10  1  6
 11 12  1  0
 11 13  2  3
 15 14  1  6
 16 15  1  1
 17 18  1  0
 18 19  1  0
 18 20  2  0
 21 22  1  0
 22 23  1  0
M  CHG  1  13   1
M  END
$$$$
