
     RDKit          3D

 23 25  0  0  0  0  0  0  0  0999 V2000
   11.1456  -21.7359   10.9086 O   0  0  0  0  0  0  0  0  0  0  0  0
   11.4515  -20.5314   11.5735 C   0  0  0  0  0  0  0  0  0  0  0  0
   10.2145  -19.6969   11.5176 C   0  0  0  0  0  0  0  0  0  0  0  0
    8.9610  -20.3047   11.4196 C   0  0  0  0  0  0  0  0  0  0  0  0
    7.8424  -19.5066   11.3712 C   0  0  0  0  0  0  0  0  0  0  0  0
    7.9014  -18.1160   11.4154 C   0  0  0  0  0  0  0  0  0  0  0  0
    6.6819  -17.3288   11.3650 C   0  0  0  0  0  0  0  0  0  0  0  0
    6.4658  -16.2630   12.2422 C   0  0  0  0  0  0  0  0  0  0  0  0
    5.3339  -15.5166   12.2033 C   0  0  0  0  0  0  0  0  0  0  0  0
    5.0061  -14.3676   13.0769 C   0  0  1  0  0  0  0  0  0  0  0  0
    5.6167  -14.3985   14.4130 C   0  0  0  0  0  0  0  0  0  0  0  0
    5.0449  -15.2333   15.4041 N   0  0  0  0  0  0  0  0  0  0  0  0
    6.6432  -13.6878   14.6960 N   0  0  0  0  0  4  0  0  0  0  0  0
    5.2850  -13.0074   12.4491 C   0  0  0  0  0  0  0  0  0  0  0  0
    4.0851  -12.5308   13.2919 C   0  0  0  0  0  0  0  0  0  0  0  0
    3.5547  -13.9558   13.0716 C   0  0  0  0  0  0  0  0  0  0  0  0
    4.3757  -15.8485   11.2474 C   0  0  0  0  0  0  0  0  0  0  0  0
    4.5491  -16.8935   10.3617 C   0  0  0  0  0  0  0  0  0  0  0  0
    3.3425  -17.3084    9.1615 Cl  0  0  0  0  0  0  0  0  0  0  0  0
    5.7068  -17.6320   10.4248 C   0  0  0  0  0  0  0  0  0  0  0  0
    9.1530  -17.5497   11.5121 C   0  0  0  0  0  0  0  0  0  0  0  0
   10.2947  -18.3217   11.5628 C   0  0  0  0  0  0  0  0  0  0  0  0
   11.8910  -17.6115   11.6869 Cl  0  0  0  0  0  0  0  0  0  0  0  0
  2  1  1  6
  2  3  1  0
  3 22  2  0
  3  4  1  0
  4  5  2  0
  5  6  1  0
  6  7  1  0
  6 21  2  0
  7 20  1  0
  7  8  2  0
  8  9  1  0
 10  9  1  6
  9 17  2  0
 10 16  1  0
 10 11  1  0
 14 10  1  6
 11 12  1  0
 11 13  2  3
 15 14  1  6
 16 15  1  1
 17 18  1  0
 18 19  1  0
 18 20  2  0
 21 22  1  0
 22 23  1  0
M  CHG  1  13   1
M  END
$$$$
