
     RDKit          3D

 23 25  0  0  0  0  0  0  0  0999 V2000
   10.0180   -6.4687    4.0876 O   0  0  0  0  0  0  0  0  0  0  0  0
   10.9851   -7.4318    3.7359 C   0  0  0  0  0  0  0  0  0  0  0  0
   11.1399   -7.3471    2.2532 C   0  0  0  0  0  0  0  0  0  0  0  0
   10.3752   -6.4388    1.5178 C   0  0  0  0  0  0  0  0  0  0  0  0
   10.5435   -6.3862    0.1542 C   0  0  0  0  0  0  0  0  0  0  0  0
   11.4437   -7.1991   -0.5300 C   0  0  0  0  0  0  0  0  0  0  0  0
   11.5781   -7.0918   -1.9722 C   0  0  0  0  0  0  0  0  0  0  0  0
   11.5532   -5.8521   -2.6161 C   0  0  0  0  0  0  0  0  0  0  0  0
   11.6822   -5.7368   -3.9614 C   0  0  0  0  0  0  0  0  0  0  0  0
   11.6760   -4.4794   -4.7423 C   0  0  1  0  0  0  0  0  0  0  0  0
   10.5322   -3.5908   -4.4953 C   0  0  0  0  0  0  0  0  0  0  0  0
   10.6957   -2.5012   -3.6054 N   0  0  0  0  0  0  0  0  0  0  0  0
    9.4001   -3.7850   -5.0607 N   0  0  0  0  0  4  0  0  0  0  0  0
   12.9573   -3.6636   -4.6209 C   0  0  0  0  0  0  0  0  0  0  0  0
   12.6503   -3.2301   -6.0683 C   0  0  0  0  0  0  0  0  0  0  0  0
   12.0349   -4.6318   -6.1998 C   0  0  0  0  0  0  0  0  0  0  0  0
   11.8428   -6.9100   -4.6962 C   0  0  0  0  0  0  0  0  0  0  0  0
   11.8728   -8.1550   -4.0999 C   0  0  0  0  0  0  0  0  0  0  0  0
   12.0744   -9.6279   -5.0265 Cl  0  0  0  0  0  0  0  0  0  0  0  0
   11.7400   -8.2405   -2.7344 C   0  0  0  0  0  0  0  0  0  0  0  0
   12.1815   -8.0830    0.2256 C   0  0  0  0  0  0  0  0  0  0  0  0
   12.0369   -8.1607    1.5950 C   0  0  0  0  0  0  0  0  0  0  0  0
   12.9710   -9.2804    2.5653 Cl  0  0  0  0  0  0  0  0  0  0  0  0
  2  1  1  6
  2  3  1  0
  3 22  2  0
  3  4  1  0
  4  5  2  0
  5  6  1  0
  6  7  1  0
  6 21  2  0
  7 20  1  0
  7  8  2  0
  8  9  1  0
 10  9  1  1
  9 17  2  0
 10 16  1  0
 10 11  1  0
 14 10  1  6
 11 12  1  0
 11 13  2  3
 15 14  1  6
 16 15  1  1
 17 18  1  0
 18 19  1  0
 18 20  2  0
 21 22  1  0
 22 23  1  0
M  CHG  1  13   1
M  END
$$$$
