
     RDKit          3D

 23 25  0  0  0  0  0  0  0  0999 V2000
    4.1996  -11.6722   15.3638 O   0  0  0  0  0  0  0  0  0  0  0  0
    4.3633  -13.0608   15.5419 C   0  0  0  0  0  0  0  0  0  0  0  0
    4.8048  -13.6027   14.2225 C   0  0  0  0  0  0  0  0  0  0  0  0
    5.3224  -12.7457   13.2488 C   0  0  0  0  0  0  0  0  0  0  0  0
    5.7205  -13.2779   12.0452 C   0  0  0  0  0  0  0  0  0  0  0  0
    5.6312  -14.6360   11.7507 C   0  0  0  0  0  0  0  0  0  0  0  0
    6.0733  -15.1370   10.4611 C   0  0  0  0  0  0  0  0  0  0  0  0
    7.3898  -14.9659   10.0254 C   0  0  0  0  0  0  0  0  0  0  0  0
    7.8175  -15.4325    8.8257 C   0  0  0  0  0  0  0  0  0  0  0  0
    9.1843  -15.3125    8.2705 C   0  0  1  0  0  0  0  0  0  0  0  0
    9.9590  -14.1593    8.7491 C   0  0  0  0  0  0  0  0  0  0  0  0
    9.8319  -12.9236    8.0689 N   0  0  0  0  0  0  0  0  0  0  0  0
   10.7428  -14.2519    9.7571 N   0  0  0  0  0  4  0  0  0  0  0  0
   10.0349  -16.5666    8.4307 C   0  0  0  0  0  0  0  0  0  0  0  0
   10.6843  -16.1238    7.1043 C   0  0  0  0  0  0  0  0  0  0  0  0
    9.2931  -15.5548    6.7853 C   0  0  0  0  0  0  0  0  0  0  0  0
    6.8909  -16.0986    8.0259 C   0  0  0  0  0  0  0  0  0  0  0  0
    5.5808  -16.2893    8.4181 C   0  0  0  0  0  0  0  0  0  0  0  0
    4.4184  -17.1267    7.4101 Cl  0  0  0  0  0  0  0  0  0  0  0  0
    5.1763  -15.8055    9.6395 C   0  0  0  0  0  0  0  0  0  0  0  0
    5.1164  -15.4525   12.7330 C   0  0  0  0  0  0  0  0  0  0  0  0
    4.7081  -14.9505   13.9510 C   0  0  0  0  0  0  0  0  0  0  0  0
    4.0531  -15.9803   15.2073 Cl  0  0  0  0  0  0  0  0  0  0  0  0
  2  1  1  6
  2  3  1  0
  3 22  2  0
  3  4  1  0
  4  5  2  0
  5  6  1  0
  6  7  1  0
  6 21  2  0
  7 20  1  0
  7  8  2  0
  8  9  1  0
 10  9  1  1
  9 17  2  0
 10 16  1  0
 10 11  1  0
 14 10  1  6
 11 12  1  0
 11 13  2  3
 15 14  1  6
 16 15  1  1
 17 18  1  0
 18 19  1  0
 18 20  2  0
 21 22  1  0
 22 23  1  0
M  CHG  1  13   1
M  END
$$$$
