
     RDKit          3D

 23 25  0  0  0  0  0  0  0  0999 V2000
    3.6726  -18.6853    5.1042 O   0  0  0  0  0  0  0  0  0  0  0  0
    3.1746  -17.3673    5.1413 C   0  0  0  0  0  0  0  0  0  0  0  0
    3.5660  -16.8094    6.4698 C   0  0  0  0  0  0  0  0  0  0  0  0
    4.2104  -17.6177    7.4089 C   0  0  0  0  0  0  0  0  0  0  0  0
    4.5577  -17.0718    8.6221 C   0  0  0  0  0  0  0  0  0  0  0  0
    4.2960  -15.7463    8.9593 C   0  0  0  0  0  0  0  0  0  0  0  0
    4.6927  -15.2280   10.2567 C   0  0  0  0  0  0  0  0  0  0  0  0
    5.8471  -14.4562   10.4111 C   0  0  0  0  0  0  0  0  0  0  0  0
    6.2270  -13.9620   11.6158 C   0  0  0  0  0  0  0  0  0  0  0  0
    7.4217  -13.1323   11.8903 C   0  0  1  0  0  0  0  0  0  0  0  0
    7.7469  -12.9480   13.3113 C   0  0  0  0  0  0  0  0  0  0  0  0
    8.5791  -13.9003   13.9488 N   0  0  0  0  0  0  0  0  0  0  0  0
    7.2919  -11.9543   13.9782 N   0  0  0  0  0  4  0  0  0  0  0  0
    8.6794  -13.5896   11.1616 C   0  0  0  0  0  0  0  0  0  0  0  0
    9.0459  -12.0920   11.1501 C   0  0  0  0  0  0  0  0  0  0  0  0
    7.5274  -11.8735   11.0653 C   0  0  0  0  0  0  0  0  0  0  0  0
    5.4198  -14.2509   12.7144 C   0  0  0  0  0  0  0  0  0  0  0  0
    4.2712  -15.0095   12.6060 C   0  0  0  0  0  0  0  0  0  0  0  0
    3.2589  -15.3711   13.9891 Cl  0  0  0  0  0  0  0  0  0  0  0  0
    3.9112  -15.4966   11.3721 C   0  0  0  0  0  0  0  0  0  0  0  0
    3.6595  -14.9775    8.0103 C   0  0  0  0  0  0  0  0  0  0  0  0
    3.2979  -15.4944    6.7839 C   0  0  0  0  0  0  0  0  0  0  0  0
    2.4892  -14.5250    5.5697 Cl  0  0  0  0  0  0  0  0  0  0  0  0
  2  1  1  6
  2  3  1  0
  3 22  2  0
  3  4  1  0
  4  5  2  0
  5  6  1  0
  6  7  1  0
  6 21  2  0
  7 20  1  0
  7  8  2  0
  8  9  1  0
 10  9  1  1
  9 17  2  0
 10 16  1  0
 10 11  1  0
 14 10  1  6
 11 12  1  0
 11 13  2  3
 15 14  1  6
 16 15  1  1
 17 18  1  0
 18 19  1  0
 18 20  2  0
 21 22  1  0
 22 23  1  0
M  CHG  1  13   1
M  END
$$$$
