
     RDKit          3D

 23 25  0  0  0  0  0  0  0  0999 V2000
    1.6173  -12.9116    6.8401 O   0  0  0  0  0  0  0  0  0  0  0  0
    1.9540  -13.5818    8.0334 C   0  0  0  0  0  0  0  0  0  0  0  0
    3.2844  -14.2167    7.7956 C   0  0  0  0  0  0  0  0  0  0  0  0
    3.9562  -14.0090    6.5890 C   0  0  0  0  0  0  0  0  0  0  0  0
    5.1799  -14.6077    6.4033 C   0  0  0  0  0  0  0  0  0  0  0  0
    5.7825  -15.4143    7.3653 C   0  0  0  0  0  0  0  0  0  0  0  0
    7.0800  -16.0149    7.1098 C   0  0  0  0  0  0  0  0  0  0  0  0
    8.1425  -15.8620    8.0042 C   0  0  0  0  0  0  0  0  0  0  0  0
    9.3580  -16.4211    7.7806 C   0  0  0  0  0  0  0  0  0  0  0  0
   10.5453  -16.3282    8.6596 C   0  0  1  0  0  0  0  0  0  0  0  0
   11.8368  -16.5632    7.9996 C   0  0  0  0  0  0  0  0  0  0  0  0
   12.4619  -17.8245    8.1554 N   0  0  0  0  0  0  0  0  0  0  0  0
   12.4040  -15.6555    7.2972 N   0  0  0  0  0  4  0  0  0  0  0  0
   10.6355  -15.0288    9.4504 C   0  0  0  0  0  0  0  0  0  0  0  0
   11.3203  -15.8965   10.5254 C   0  0  0  0  0  0  0  0  0  0  0  0
   10.4033  -17.0107    9.9976 C   0  0  0  0  0  0  0  0  0  0  0  0
    9.5202  -17.1650    6.6135 C   0  0  0  0  0  0  0  0  0  0  0  0
    8.4969  -17.3411    5.7033 C   0  0  0  0  0  0  0  0  0  0  0  0
    8.7042  -18.2766    4.2368 Cl  0  0  0  0  0  0  0  0  0  0  0  0
    7.2759  -16.7627    5.9570 C   0  0  0  0  0  0  0  0  0  0  0  0
    5.0929  -15.5979    8.5431 C   0  0  0  0  0  0  0  0  0  0  0  0
    3.8638  -15.0116    8.7611 C   0  0  0  0  0  0  0  0  0  0  0  0
    2.9790  -15.2378   10.2557 Cl  0  0  0  0  0  0  0  0  0  0  0  0
  2  1  1  6
  2  3  1  0
  3 22  2  0
  3  4  1  0
  4  5  2  0
  5  6  1  0
  6  7  1  0
  6 21  2  0
  7 20  1  0
  7  8  2  0
  8  9  1  0
 10  9  1  6
  9 17  2  0
 10 16  1  0
 10 11  1  0
 14 10  1  6
 11 12  1  0
 11 13  2  3
 15 14  1  6
 16 15  1  1
 17 18  1  0
 18 19  1  0
 18 20  2  0
 21 22  1  0
 22 23  1  0
M  CHG  1  13   1
M  END
$$$$
