
     RDKit          3D

 23 25  0  0  0  0  0  0  0  0999 V2000
    9.7752   -2.9604    4.1642 O   0  0  0  0  0  0  0  0  0  0  0  0
    8.7490   -3.8207    3.7245 C   0  0  0  0  0  0  0  0  0  0  0  0
    9.1293   -4.2564    2.3479 C   0  0  0  0  0  0  0  0  0  0  0  0
   10.3860   -4.8176    2.1109 C   0  0  0  0  0  0  0  0  0  0  0  0
   10.7036   -5.2089    0.8317 C   0  0  0  0  0  0  0  0  0  0  0  0
    9.8277   -5.0712   -0.2422 C   0  0  0  0  0  0  0  0  0  0  0  0
   10.2215   -5.5087   -1.5699 C   0  0  0  0  0  0  0  0  0  0  0  0
   11.2651   -4.8887   -2.2617 C   0  0  0  0  0  0  0  0  0  0  0  0
   11.6465   -5.2898   -3.5001 C   0  0  0  0  0  0  0  0  0  0  0  0
   12.7369   -4.7108   -4.3166 C   0  0  1  0  0  0  0  0  0  0  0  0
   12.3071   -4.0098   -5.5343 C   0  0  0  0  0  0  0  0  0  0  0  0
   12.1077   -2.6087   -5.4794 N   0  0  0  0  0  0  0  0  0  0  0  0
   12.1070   -4.6375   -6.6320 N   0  0  0  0  0  4  0  0  0  0  0  0
   13.6800   -3.7992   -3.5410 C   0  0  0  0  0  0  0  0  0  0  0  0
   14.7528   -4.3090   -4.5242 C   0  0  0  0  0  0  0  0  0  0  0  0
   13.9335   -5.6088   -4.5118 C   0  0  0  0  0  0  0  0  0  0  0  0
   10.9560   -6.3561   -4.0731 C   0  0  0  0  0  0  0  0  0  0  0  0
    9.9191   -6.9968   -3.4243 C   0  0  0  0  0  0  0  0  0  0  0  0
    9.0530   -8.3366   -4.1476 Cl  0  0  0  0  0  0  0  0  0  0  0  0
    9.5552   -6.5683   -2.1699 C   0  0  0  0  0  0  0  0  0  0  0  0
    8.5972   -4.5142    0.0268 C   0  0  0  0  0  0  0  0  0  0  0  0
    8.2475   -4.1115    1.2986 C   0  0  0  0  0  0  0  0  0  0  0  0
    6.6849   -3.4031    1.6515 Cl  0  0  0  0  0  0  0  0  0  0  0  0
  2  1  1  6
  2  3  1  0
  3 22  2  0
  3  4  1  0
  4  5  2  0
  5  6  1  0
  6  7  1  0
  6 21  2  0
  7 20  1  0
  7  8  2  0
  8  9  1  0
 10  9  1  1
  9 17  2  0
 10 16  1  0
 10 11  1  0
 14 10  1  6
 11 12  1  0
 11 13  2  3
 15 14  1  6
 16 15  1  1
 17 18  1  0
 18 19  1  0
 18 20  2  0
 21 22  1  0
 22 23  1  0
M  CHG  1  13   1
M  END
$$$$
