
     RDKit          3D

 23 25  0  0  0  0  0  0  0  0999 V2000
   11.7656  -20.9573    3.9137 O   0  0  0  0  0  0  0  0  0  0  0  0
   12.0228  -19.5751    4.0128 C   0  0  0  0  0  0  0  0  0  0  0  0
   10.7447  -18.9423    4.4550 C   0  0  0  0  0  0  0  0  0  0  0  0
    9.7078  -19.7310    4.9582 C   0  0  0  0  0  0  0  0  0  0  0  0
    8.5446  -19.1160    5.3573 C   0  0  0  0  0  0  0  0  0  0  0  0
    8.3517  -17.7388    5.2829 C   0  0  0  0  0  0  0  0  0  0  0  0
    7.1003  -17.1492    5.7253 C   0  0  0  0  0  0  0  0  0  0  0  0
    6.5206  -17.5012    6.9468 C   0  0  0  0  0  0  0  0  0  0  0  0
    5.3550  -16.9552    7.3746 C   0  0  0  0  0  0  0  0  0  0  0  0
    4.6590  -17.2500    8.6472 C   0  0  1  0  0  0  0  0  0  0  0  0
    3.6558  -18.3216    8.5823 C   0  0  0  0  0  0  0  0  0  0  0  0
    4.0971  -19.6606    8.4466 N   0  0  0  0  0  0  0  0  0  0  0  0
    2.4022  -18.0687    8.6408 N   0  0  0  0  0  4  0  0  0  0  0  0
    5.5928  -17.5318    9.8179 C   0  0  0  0  0  0  0  0  0  0  0  0
    4.4800  -16.8955   10.6747 C   0  0  0  0  0  0  0  0  0  0  0  0
    4.2161  -16.0372    9.4278 C   0  0  0  0  0  0  0  0  0  0  0  0
    4.7409  -16.0171    6.5470 C   0  0  0  0  0  0  0  0  0  0  0  0
    5.2795  -15.6409    5.3325 C   0  0  0  0  0  0  0  0  0  0  0  0
    4.5049  -14.4615    4.2944 Cl  0  0  0  0  0  0  0  0  0  0  0  0
    6.4622  -16.2111    4.9256 C   0  0  0  0  0  0  0  0  0  0  0  0
    9.3943  -16.9913    4.7821 C   0  0  0  0  0  0  0  0  0  0  0  0
   10.5739  -17.5771    4.3732 C   0  0  0  0  0  0  0  0  0  0  0  0
   11.9063  -16.6354    3.7360 Cl  0  0  0  0  0  0  0  0  0  0  0  0
  2  1  1  6
  2  3  1  0
  3 22  2  0
  3  4  1  0
  4  5  2  0
  5  6  1  0
  6  7  1  0
  6 21  2  0
  7 20  1  0
  7  8  2  0
  8  9  1  0
 10  9  1  6
  9 17  2  0
 10 16  1  0
 10 11  1  0
 14 10  1  6
 11 12  1  0
 11 13  2  3
 15 14  1  6
 16 15  1  1
 17 18  1  0
 18 19  1  0
 18 20  2  0
 21 22  1  0
 22 23  1  0
M  CHG  1  13   1
M  END
$$$$
