
     RDKit          3D

 23 25  0  0  0  0  0  0  0  0999 V2000
    9.4922  -16.4400    4.2408 O   0  0  0  0  0  0  0  0  0  0  0  0
    8.2923  -17.0036    4.7195 C   0  0  0  0  0  0  0  0  0  0  0  0
    7.9329  -16.2392    5.9507 C   0  0  0  0  0  0  0  0  0  0  0  0
    8.9014  -15.4854    6.6172 C   0  0  0  0  0  0  0  0  0  0  0  0
    8.5363  -14.7927    7.7474 C   0  0  0  0  0  0  0  0  0  0  0  0
    7.2417  -14.8079    8.2603 C   0  0  0  0  0  0  0  0  0  0  0  0
    6.9183  -14.0505    9.4565 C   0  0  0  0  0  0  0  0  0  0  0  0
    6.3402  -14.6618   10.5720 C   0  0  0  0  0  0  0  0  0  0  0  0
    6.0373  -13.9677   11.6973 C   0  0  0  0  0  0  0  0  0  0  0  0
    5.4314  -14.5136   12.9326 C   0  0  1  0  0  0  0  0  0  0  0  0
    4.0405  -14.1112   13.1823 C   0  0  0  0  0  0  0  0  0  0  0  0
    2.9959  -14.8914   12.6292 N   0  0  0  0  0  0  0  0  0  0  0  0
    3.7588  -13.0755   13.8801 N   0  0  0  0  0  4  0  0  0  0  0  0
    5.5262  -16.0294   13.0564 C   0  0  0  0  0  0  0  0  0  0  0  0
    5.6044  -15.7585   14.5722 C   0  0  0  0  0  0  0  0  0  0  0  0
    6.3166  -14.4631   14.1533 C   0  0  0  0  0  0  0  0  0  0  0  0
    6.3236  -12.6039   11.7099 C   0  0  0  0  0  0  0  0  0  0  0  0
    6.8945  -11.9605   10.6297 C   0  0  0  0  0  0  0  0  0  0  0  0
    7.2529  -10.2460   10.6486 Cl  0  0  0  0  0  0  0  0  0  0  0  0
    7.1907  -12.6902    9.5030 C   0  0  0  0  0  0  0  0  0  0  0  0
    6.3119  -15.5611    7.5785 C   0  0  0  0  0  0  0  0  0  0  0  0
    6.6454  -16.2674    6.4419 C   0  0  0  0  0  0  0  0  0  0  0  0
    5.4703  -17.2273    5.5669 Cl  0  0  0  0  0  0  0  0  0  0  0  0
  2  1  1  6
  2  3  1  0
  3 22  2  0
  3  4  1  0
  4  5  2  0
  5  6  1  0
  6  7  1  0
  6 21  2  0
  7 20  1  0
  7  8  2  0
  8  9  1  0
 10  9  1  6
  9 17  2  0
 10 16  1  0
 10 11  1  0
 14 10  1  6
 11 12  1  0
 11 13  2  3
 15 14  1  6
 16 15  1  1
 17 18  1  0
 18 19  1  0
 18 20  2  0
 21 22  1  0
 22 23  1  0
M  CHG  1  13   1
M  END
$$$$
