
     RDKit          3D

 23 25  0  0  0  0  0  0  0  0999 V2000
    0.5656  -14.5792    8.2814 O   0  0  0  0  0  0  0  0  0  0  0  0
    1.1129  -13.2806    8.2522 C   0  0  0  0  0  0  0  0  0  0  0  0
    2.5127  -13.4052    8.7566 C   0  0  0  0  0  0  0  0  0  0  0  0
    3.0184  -14.6540    9.1244 C   0  0  0  0  0  0  0  0  0  0  0  0
    4.3118  -14.7332    9.5839 C   0  0  0  0  0  0  0  0  0  0  0  0
    5.1439  -13.6226    9.7002 C   0  0  0  0  0  0  0  0  0  0  0  0
    6.5033  -13.7733   10.1886 C   0  0  0  0  0  0  0  0  0  0  0  0
    7.3855  -14.6930    9.6159 C   0  0  0  0  0  0  0  0  0  0  0  0
    8.6590  -14.8410   10.0588 C   0  0  0  0  0  0  0  0  0  0  0  0
    9.6745  -15.7757    9.5239 C   0  0  1  0  0  0  0  0  0  0  0  0
   10.4263  -15.2890    8.3591 C   0  0  0  0  0  0  0  0  0  0  0  0
    9.7618  -15.1898    7.1123 N   0  0  0  0  0  0  0  0  0  0  0  0
   11.6605  -14.9609    8.4491 N   0  0  0  0  0  4  0  0  0  0  0  0
   10.6673  -16.2799   10.5642 C   0  0  0  0  0  0  0  0  0  0  0  0
   10.6873  -17.5663    9.7144 C   0  0  0  0  0  0  0  0  0  0  0  0
    9.2236  -17.2111    9.4109 C   0  0  0  0  0  0  0  0  0  0  0  0
    9.0699  -14.0362   11.1196 C   0  0  0  0  0  0  0  0  0  0  0  0
    8.2307  -13.1150   11.7142 C   0  0  0  0  0  0  0  0  0  0  0  0
    8.7502  -12.1050   13.0478 Cl  0  0  0  0  0  0  0  0  0  0  0  0
    6.9455  -12.9871   11.2436 C   0  0  0  0  0  0  0  0  0  0  0  0
    4.6136  -12.4070    9.3290 C   0  0  0  0  0  0  0  0  0  0  0  0
    3.3202  -12.2933    8.8640 C   0  0  0  0  0  0  0  0  0  0  0  0
    2.6366  -10.7525    8.3883 Cl  0  0  0  0  0  0  0  0  0  0  0  0
  2  1  1  6
  2  3  1  0
  3 22  2  0
  3  4  1  0
  4  5  2  0
  5  6  1  0
  6  7  1  0
  6 21  2  0
  7 20  1  0
  7  8  2  0
  8  9  1  0
 10  9  1  1
  9 17  2  0
 10 16  1  0
 10 11  1  0
 14 10  1  6
 11 12  1  0
 11 13  2  3
 15 14  1  6
 16 15  1  1
 17 18  1  0
 18 19  1  0
 18 20  2  0
 21 22  1  0
 22 23  1  0
M  CHG  1  13   1
M  END
$$$$
