
     RDKit          3D

 23 25  0  0  0  0  0  0  0  0999 V2000
   18.9239  -16.8072   -8.4627 O   0  0  0  0  0  0  0  0  0  0  0  0
   18.2305  -16.2975   -9.5789 C   0  0  0  0  0  0  0  0  0  0  0  0
   16.7836  -16.3014   -9.2102 C   0  0  0  0  0  0  0  0  0  0  0  0
   16.3929  -16.5952   -7.9020 C   0  0  0  0  0  0  0  0  0  0  0  0
   15.0523  -16.5892   -7.5963 C   0  0  0  0  0  0  0  0  0  0  0  0
   14.0629  -16.3030   -8.5334 C   0  0  0  0  0  0  0  0  0  0  0  0
   12.6631  -16.3084   -8.1461 C   0  0  0  0  0  0  0  0  0  0  0  0
   11.8135  -15.2474   -8.4696 C   0  0  0  0  0  0  0  0  0  0  0  0
   10.5033  -15.2413   -8.1184 C   0  0  0  0  0  0  0  0  0  0  0  0
    9.5174  -14.1774   -8.4133 C   0  0  1  0  0  0  0  0  0  0  0  0
    8.8558  -14.2775   -9.7214 C   0  0  0  0  0  0  0  0  0  0  0  0
    8.1300  -15.4540  -10.0295 N   0  0  0  0  0  0  0  0  0  0  0  0
    8.9272  -13.3316  -10.5812 N   0  0  0  0  0  4  0  0  0  0  0  0
    8.4475  -14.0044   -7.3421 C   0  0  0  0  0  0  0  0  0  0  0  0
    8.4725  -12.5199   -7.7580 C   0  0  0  0  0  0  0  0  0  0  0  0
    9.9582  -12.7808   -8.0505 C   0  0  0  0  0  0  0  0  0  0  0  0
   10.0201  -16.3419   -7.4134 C   0  0  0  0  0  0  0  0  0  0  0  0
   10.8251  -17.4111   -7.0736 C   0  0  0  0  0  0  0  0  0  0  0  0
   10.2146  -18.7930   -6.1869 Cl  0  0  0  0  0  0  0  0  0  0  0  0
   12.1488  -17.3893   -7.4434 C   0  0  0  0  0  0  0  0  0  0  0  0
   14.4830  -16.0177   -9.8136 C   0  0  0  0  0  0  0  0  0  0  0  0
   15.8197  -16.0152  -10.1529 C   0  0  0  0  0  0  0  0  0  0  0  0
   16.3646  -15.6527  -11.7776 Cl  0  0  0  0  0  0  0  0  0  0  0  0
  2  1  1  6
  2  3  1  0
  3 22  2  0
  3  4  1  0
  4  5  2  0
  5  6  1  0
  6  7  1  0
  6 21  2  0
  7 20  1  0
  7  8  2  0
  8  9  1  0
 10  9  1  1
  9 17  2  0
 10 16  1  0
 10 11  1  0
 14 10  1  6
 11 12  1  0
 11 13  2  3
 15 14  1  6
 16 15  1  1
 17 18  1  0
 18 19  1  0
 18 20  2  0
 21 22  1  0
 22 23  1  0
M  CHG  1  13   1
M  END
$$$$
