
     RDKit          3D

 23 25  0  0  0  0  0  0  0  0999 V2000
    6.3372   -7.2102    7.2726 O   0  0  0  0  0  0  0  0  0  0  0  0
    7.3334   -7.5425    8.2127 C   0  0  0  0  0  0  0  0  0  0  0  0
    6.9047   -8.8278    8.8400 C   0  0  0  0  0  0  0  0  0  0  0  0
    5.9385   -9.6237    8.2209 C   0  0  0  0  0  0  0  0  0  0  0  0
    5.5674  -10.8017    8.8252 C   0  0  0  0  0  0  0  0  0  0  0  0
    6.1118  -11.2395   10.0299 C   0  0  0  0  0  0  0  0  0  0  0  0
    5.6805  -12.4968   10.6150 C   0  0  0  0  0  0  0  0  0  0  0  0
    6.5582  -13.2972   11.3507 C   0  0  0  0  0  0  0  0  0  0  0  0
    6.1678  -14.4713   11.9066 C   0  0  0  0  0  0  0  0  0  0  0  0
    7.0090  -15.3899   12.7062 C   0  0  1  0  0  0  0  0  0  0  0  0
    7.4114  -16.6282   12.0253 C   0  0  0  0  0  0  0  0  0  0  0  0
    8.0849  -16.5345   10.7829 N   0  0  0  0  0  0  0  0  0  0  0  0
    7.1623  -17.7791   12.5277 N   0  0  0  0  0  4  0  0  0  0  0  0
    8.2519  -14.7390   13.3008 C   0  0  0  0  0  0  0  0  0  0  0  0
    8.0531  -15.7435   14.4536 C   0  0  0  0  0  0  0  0  0  0  0  0
    6.5585  -15.5889   14.1323 C   0  0  0  0  0  0  0  0  0  0  0  0
    4.8438  -14.8639   11.7198 C   0  0  0  0  0  0  0  0  0  0  0  0
    3.9439  -14.1032   11.0000 C   0  0  0  0  0  0  0  0  0  0  0  0
    2.2803  -14.5998   10.7668 Cl  0  0  0  0  0  0  0  0  0  0  0  0
    4.3683  -12.9177   10.4487 C   0  0  0  0  0  0  0  0  0  0  0  0
    7.0618  -10.4307   10.6130 C   0  0  0  0  0  0  0  0  0  0  0  0
    7.4562   -9.2433   10.0329 C   0  0  0  0  0  0  0  0  0  0  0  0
    8.6642   -8.2081   10.7657 Cl  0  0  0  0  0  0  0  0  0  0  0  0
  2  1  1  6
  2  3  1  0
  3 22  2  0
  3  4  1  0
  4  5  2  0
  5  6  1  0
  6  7  1  0
  6 21  2  0
  7 20  1  0
  7  8  2  0
  8  9  1  0
 10  9  1  6
  9 17  2  0
 10 16  1  0
 10 11  1  0
 14 10  1  6
 11 12  1  0
 11 13  2  3
 15 14  1  6
 16 15  1  1
 17 18  1  0
 18 19  1  0
 18 20  2  0
 21 22  1  0
 22 23  1  0
M  CHG  1  13   1
M  END
$$$$
