
     RDKit          3D

 23 25  0  0  0  0  0  0  0  0999 V2000
   11.0860  -19.0423    9.8533 O   0  0  0  0  0  0  0  0  0  0  0  0
   10.8044  -18.5034    8.5817 C   0  0  0  0  0  0  0  0  0  0  0  0
   10.3722  -17.0927    8.8115 C   0  0  0  0  0  0  0  0  0  0  0  0
   10.1124  -16.6398   10.1068 C   0  0  0  0  0  0  0  0  0  0  0  0
    9.7172  -15.3348   10.2829 C   0  0  0  0  0  0  0  0  0  0  0  0
    9.5633  -14.4406    9.2264 C   0  0  0  0  0  0  0  0  0  0  0  0
    9.1470  -13.0723    9.4791 C   0  0  0  0  0  0  0  0  0  0  0  0
    9.9279  -11.9867    9.0745 C   0  0  0  0  0  0  0  0  0  0  0  0
    9.5492  -10.7038    9.2998 C   0  0  0  0  0  0  0  0  0  0  0  0
   10.2931   -9.4847    8.9106 C   0  0  1  0  0  0  0  0  0  0  0  0
   10.9093   -8.7427   10.0191 C   0  0  0  0  0  0  0  0  0  0  0  0
   12.1985   -9.1265   10.4623 N   0  0  0  0  0  0  0  0  0  0  0  0
   10.3055   -7.7682   10.5890 N   0  0  0  0  0  4  0  0  0  0  0  0
   11.3490   -9.7147    7.8364 C   0  0  0  0  0  0  0  0  0  0  0  0
   11.0147   -8.2743    7.3998 C   0  0  0  0  0  0  0  0  0  0  0  0
    9.5996   -8.6114    7.8943 C   0  0  0  0  0  0  0  0  0  0  0  0
    8.3387  -10.4953    9.9578 C   0  0  0  0  0  0  0  0  0  0  0  0
    7.5368  -11.5393   10.3745 C   0  0  0  0  0  0  0  0  0  0  0  0
    6.0157  -11.2738   11.2017 Cl  0  0  0  0  0  0  0  0  0  0  0  0
    7.9465  -12.8288   10.1319 C   0  0  0  0  0  0  0  0  0  0  0  0
    9.8276  -14.9201    7.9628 C   0  0  0  0  0  0  0  0  0  0  0  0
   10.2260  -16.2235    7.7519 C   0  0  0  0  0  0  0  0  0  0  0  0
   10.5657  -16.8428    6.1491 Cl  0  0  0  0  0  0  0  0  0  0  0  0
  2  1  1  6
  2  3  1  0
  3 22  2  0
  3  4  1  0
  4  5  2  0
  5  6  1  0
  6  7  1  0
  6 21  2  0
  7 20  1  0
  7  8  2  0
  8  9  1  0
 10  9  1  1
  9 17  2  0
 10 16  1  0
 10 11  1  0
 14 10  1  6
 11 12  1  0
 11 13  2  3
 15 14  1  6
 16 15  1  1
 17 18  1  0
 18 19  1  0
 18 20  2  0
 21 22  1  0
 22 23  1  0
M  CHG  1  13   1
M  END
$$$$
