
     RDKit          3D

 23 25  0  0  0  0  0  0  0  0999 V2000
    9.3909   -8.8924    0.0146 O   0  0  0  0  0  0  0  0  0  0  0  0
   10.4606   -9.4275   -0.7311 C   0  0  0  0  0  0  0  0  0  0  0  0
   10.7372   -8.4508   -1.8261 C   0  0  0  0  0  0  0  0  0  0  0  0
    9.9817   -7.2810   -1.9313 C   0  0  0  0  0  0  0  0  0  0  0  0
   10.2634   -6.4027   -2.9510 C   0  0  0  0  0  0  0  0  0  0  0  0
   11.2703   -6.6260   -3.8867 C   0  0  0  0  0  0  0  0  0  0  0  0
   11.5216   -5.6563   -4.9383 C   0  0  0  0  0  0  0  0  0  0  0  0
   12.6291   -4.8056   -4.8955 C   0  0  0  0  0  0  0  0  0  0  0  0
   12.8786   -3.8986   -5.8728 C   0  0  0  0  0  0  0  0  0  0  0  0
   14.0194   -2.9573   -5.9304 C   0  0  1  0  0  0  0  0  0  0  0  0
   13.9190   -1.7915   -5.0417 C   0  0  0  0  0  0  0  0  0  0  0  0
   13.4439   -0.5681   -5.5740 N   0  0  0  0  0  0  0  0  0  0  0  0
   14.2544   -1.8600   -3.8081 N   0  0  0  0  0  4  0  0  0  0  0  0
   15.3791   -3.6116   -5.7181 C   0  0  0  0  0  0  0  0  0  0  0  0
   15.8969   -2.5156   -6.6710 C   0  0  0  0  0  0  0  0  0  0  0  0
   14.5091   -2.6328   -7.3201 C   0  0  0  0  0  0  0  0  0  0  0  0
   11.9836   -3.8378   -6.9392 C   0  0  0  0  0  0  0  0  0  0  0  0
   10.8770   -4.6597   -7.0206 C   0  0  0  0  0  0  0  0  0  0  0  0
    9.7536   -4.5805   -8.3623 Cl  0  0  0  0  0  0  0  0  0  0  0  0
   10.6503   -5.5694   -6.0153 C   0  0  0  0  0  0  0  0  0  0  0  0
   11.9958   -7.7890   -3.7536 C   0  0  0  0  0  0  0  0  0  0  0  0
   11.7386   -8.6907   -2.7422 C   0  0  0  0  0  0  0  0  0  0  0  0
   12.6561  -10.1719   -2.5634 Cl  0  0  0  0  0  0  0  0  0  0  0  0
  2  1  1  6
  2  3  1  0
  3 22  2  0
  3  4  1  0
  4  5  2  0
  5  6  1  0
  6  7  1  0
  6 21  2  0
  7 20  1  0
  7  8  2  0
  8  9  1  0
 10  9  1  6
  9 17  2  0
 10 16  1  0
 10 11  1  0
 14 10  1  6
 11 12  1  0
 11 13  2  3
 15 14  1  6
 16 15  1  1
 17 18  1  0
 18 19  1  0
 18 20  2  0
 21 22  1  0
 22 23  1  0
M  CHG  1  13   1
M  END
$$$$
