
     RDKit          3D

 23 25  0  0  0  0  0  0  0  0999 V2000
    3.9709   -3.5275   -2.7013 O   0  0  0  0  0  0  0  0  0  0  0  0
    4.4190   -4.5467   -1.8370 C   0  0  0  0  0  0  0  0  0  0  0  0
    5.7947   -4.9067   -2.2924 C   0  0  0  0  0  0  0  0  0  0  0  0
    6.3808   -4.2269   -3.3624 C   0  0  0  0  0  0  0  0  0  0  0  0
    7.6493   -4.5830   -3.7553 C   0  0  0  0  0  0  0  0  0  0  0  0
    8.3792   -5.5934   -3.1343 C   0  0  0  0  0  0  0  0  0  0  0  0
    9.7178   -5.9192   -3.5943 C   0  0  0  0  0  0  0  0  0  0  0  0
   10.5923   -4.9298   -4.0508 C   0  0  0  0  0  0  0  0  0  0  0  0
   11.8465   -5.2190   -4.4788 C   0  0  0  0  0  0  0  0  0  0  0  0
   12.8525   -4.2532   -4.9748 C   0  0  1  0  0  0  0  0  0  0  0  0
   12.6903   -3.8388   -6.3750 C   0  0  0  0  0  0  0  0  0  0  0  0
   13.2339   -4.6572   -7.3951 N   0  0  0  0  0  0  0  0  0  0  0  0
   12.0765   -2.7592   -6.6862 N   0  0  0  0  0  4  0  0  0  0  0  0
   12.9951   -3.0040   -4.1140 C   0  0  0  0  0  0  0  0  0  0  0  0
   14.4694   -3.0344   -4.5643 C   0  0  0  0  0  0  0  0  0  0  0  0
   14.2773   -4.5587   -4.5833 C   0  0  0  0  0  0  0  0  0  0  0  0
   12.2452   -6.5540   -4.4502 C   0  0  0  0  0  0  0  0  0  0  0  0
   11.4129   -7.5626   -4.0068 C   0  0  0  0  0  0  0  0  0  0  0  0
   11.9170   -9.2399   -3.9725 Cl  0  0  0  0  0  0  0  0  0  0  0  0
   10.1474   -7.2390   -3.5788 C   0  0  0  0  0  0  0  0  0  0  0  0
    7.7715   -6.2430   -2.0830 C   0  0  0  0  0  0  0  0  0  0  0  0
    6.5005   -5.9100   -1.6639 C   0  0  0  0  0  0  0  0  0  0  0  0
    5.7190   -6.7291   -0.3274 Cl  0  0  0  0  0  0  0  0  0  0  0  0
  2  1  1  6
  2  3  1  0
  3 22  2  0
  3  4  1  0
  4  5  2  0
  5  6  1  0
  6  7  1  0
  6 21  2  0
  7 20  1  0
  7  8  2  0
  8  9  1  0
 10  9  1  1
  9 17  2  0
 10 16  1  0
 10 11  1  0
 14 10  1  6
 11 12  1  0
 11 13  2  3
 15 14  1  6
 16 15  1  1
 17 18  1  0
 18 19  1  0
 18 20  2  0
 21 22  1  0
 22 23  1  0
M  CHG  1  13   1
M  END
$$$$
