
     RDKit          3D

 23 25  0  0  0  0  0  0  0  0999 V2000
    4.4391  -16.1278    4.0540 O   0  0  0  0  0  0  0  0  0  0  0  0
    4.4241  -17.2799    4.8657 C   0  0  0  0  0  0  0  0  0  0  0  0
    4.6081  -16.8053    6.2694 C   0  0  0  0  0  0  0  0  0  0  0  0
    4.8746  -15.4587    6.5263 C   0  0  0  0  0  0  0  0  0  0  0  0
    5.0377  -15.0552    7.8305 C   0  0  0  0  0  0  0  0  0  0  0  0
    4.9494  -15.9296    8.9108 C   0  0  0  0  0  0  0  0  0  0  0  0
    5.1271  -15.4398   10.2665 C   0  0  0  0  0  0  0  0  0  0  0  0
    6.3347  -14.8750   10.6847 C   0  0  0  0  0  0  0  0  0  0  0  0
    6.5131  -14.4094   11.9462 C   0  0  0  0  0  0  0  0  0  0  0  0
    7.7422  -13.7902   12.4908 C   0  0  1  0  0  0  0  0  0  0  0  0
    8.3350  -14.4782   13.6459 C   0  0  0  0  0  0  0  0  0  0  0  0
    9.3102  -15.4792   13.4157 N   0  0  0  0  0  0  0  0  0  0  0  0
    7.9856  -14.1953   14.8446 N   0  0  0  0  0  4  0  0  0  0  0  0
    8.8345  -13.5560   11.4545 C   0  0  0  0  0  0  0  0  0  0  0  0
    9.1992  -12.3351   12.3226 C   0  0  0  0  0  0  0  0  0  0  0  0
    7.6938  -12.2883   12.6261 C   0  0  0  0  0  0  0  0  0  0  0  0
    5.4396  -14.5123   12.8288 C   0  0  0  0  0  0  0  0  0  0  0  0
    4.2295  -15.0634   12.4567 C   0  0  0  0  0  0  0  0  0  0  0  0
    2.8821  -15.1915   13.5688 Cl  0  0  0  0  0  0  0  0  0  0  0  0
    4.0781  -15.5264   11.1714 C   0  0  0  0  0  0  0  0  0  0  0  0
    4.6855  -17.2500    8.6217 C   0  0  0  0  0  0  0  0  0  0  0  0
    4.5166  -17.6871    7.3247 C   0  0  0  0  0  0  0  0  0  0  0  0
    4.1796  -19.3638    6.9464 Cl  0  0  0  0  0  0  0  0  0  0  0  0
  2  1  1  6
  2  3  1  0
  3 22  2  0
  3  4  1  0
  4  5  2  0
  5  6  1  0
  6  7  1  0
  6 21  2  0
  7 20  1  0
  7  8  2  0
  8  9  1  0
 10  9  1  6
  9 17  2  0
 10 16  1  0
 10 11  1  0
 14 10  1  6
 11 12  1  0
 11 13  2  3
 15 14  1  6
 16 15  1  1
 17 18  1  0
 18 19  1  0
 18 20  2  0
 21 22  1  0
 22 23  1  0
M  CHG  1  13   1
M  END
$$$$
