
     RDKit          3D

 23 25  0  0  0  0  0  0  0  0999 V2000
    7.6038  -12.0953   15.8466 O   0  0  0  0  0  0  0  0  0  0  0  0
    6.5274  -12.9923   15.9998 C   0  0  0  0  0  0  0  0  0  0  0  0
    6.1236  -13.4005   14.6215 C   0  0  0  0  0  0  0  0  0  0  0  0
    6.7142  -12.7974   13.5089 C   0  0  0  0  0  0  0  0  0  0  0  0
    6.3198  -13.1977   12.2540 C   0  0  0  0  0  0  0  0  0  0  0  0
    5.3557  -14.1795   12.0401 C   0  0  0  0  0  0  0  0  0  0  0  0
    4.9859  -14.5613   10.6884 C   0  0  0  0  0  0  0  0  0  0  0  0
    5.7466  -15.4761    9.9558 C   0  0  0  0  0  0  0  0  0  0  0  0
    5.4105  -15.8452    8.6946 C   0  0  0  0  0  0  0  0  0  0  0  0
    6.1378  -16.8055    7.8345 C   0  0  1  0  0  0  0  0  0  0  0  0
    5.4462  -18.0782    7.5876 C   0  0  0  0  0  0  0  0  0  0  0  0
    5.5422  -19.1051    8.5583 N   0  0  0  0  0  0  0  0  0  0  0  0
    4.7691  -18.2752    6.5191 N   0  0  0  0  0  4  0  0  0  0  0  0
    6.5841  -16.2300    6.4960 C   0  0  0  0  0  0  0  0  0  0  0  0
    7.7735  -17.2011    6.6360 C   0  0  0  0  0  0  0  0  0  0  0  0
    7.6073  -16.9521    8.1431 C   0  0  0  0  0  0  0  0  0  0  0  0
    4.2654  -15.2763    8.1403 C   0  0  0  0  0  0  0  0  0  0  0  0
    3.4856  -14.3687    8.8293 C   0  0  0  0  0  0  0  0  0  0  0  0
    2.0470  -13.6552    8.1295 Cl  0  0  0  0  0  0  0  0  0  0  0  0
    3.8510  -14.0140   10.1061 C   0  0  0  0  0  0  0  0  0  0  0  0
    4.7940  -14.7534   13.1589 C   0  0  0  0  0  0  0  0  0  0  0  0
    5.1673  -14.3747   14.4314 C   0  0  0  0  0  0  0  0  0  0  0  0
    4.4600  -15.0990   15.8607 Cl  0  0  0  0  0  0  0  0  0  0  0  0
  2  1  1  6
  2  3  1  0
  3 22  2  0
  3  4  1  0
  4  5  2  0
  5  6  1  0
  6  7  1  0
  6 21  2  0
  7 20  1  0
  7  8  2  0
  8  9  1  0
 10  9  1  1
  9 17  2  0
 10 16  1  0
 10 11  1  0
 14 10  1  6
 11 12  1  0
 11 13  2  3
 15 14  1  6
 16 15  1  1
 17 18  1  0
 18 19  1  0
 18 20  2  0
 21 22  1  0
 22 23  1  0
M  CHG  1  13   1
M  END
$$$$
