
     RDKit          3D

 23 25  0  0  0  0  0  0  0  0999 V2000
    3.1659  -15.1292    4.0990 O   0  0  0  0  0  0  0  0  0  0  0  0
    3.5498  -16.3333    4.7229 C   0  0  0  0  0  0  0  0  0  0  0  0
    3.7107  -16.0199    6.1739 C   0  0  0  0  0  0  0  0  0  0  0  0
    3.4313  -14.7373    6.6507 C   0  0  0  0  0  0  0  0  0  0  0  0
    3.5891  -14.4830    7.9927 C   0  0  0  0  0  0  0  0  0  0  0  0
    4.0160  -15.4479    8.9016 C   0  0  0  0  0  0  0  0  0  0  0  0
    4.1584  -15.1172   10.3086 C   0  0  0  0  0  0  0  0  0  0  0  0
    5.3035  -15.4695   11.0276 C   0  0  0  0  0  0  0  0  0  0  0  0
    5.4519  -15.1631   12.3406 C   0  0  0  0  0  0  0  0  0  0  0  0
    6.6195  -15.4812   13.1927 C   0  0  1  0  0  0  0  0  0  0  0  0
    6.8136  -16.9075   13.4875 C   0  0  0  0  0  0  0  0  0  0  0  0
    7.8191  -17.6173   12.7867 N   0  0  0  0  0  0  0  0  0  0  0  0
    6.0939  -17.5153   14.3544 N   0  0  0  0  0  4  0  0  0  0  0  0
    7.9370  -14.9087   12.6843 C   0  0  0  0  0  0  0  0  0  0  0  0
    8.3091  -14.8151   14.1776 C   0  0  0  0  0  0  0  0  0  0  0  0
    6.8057  -14.5745   14.3842 C   0  0  0  0  0  0  0  0  0  0  0  0
    4.4120  -14.4753   12.9632 C   0  0  0  0  0  0  0  0  0  0  0  0
    3.2637  -14.1083   12.2900 C   0  0  0  0  0  0  0  0  0  0  0  0
    1.9582  -13.2441   13.0758 Cl  0  0  0  0  0  0  0  0  0  0  0  0
    3.1418  -14.4322   10.9597 C   0  0  0  0  0  0  0  0  0  0  0  0
    4.2825  -16.7016    8.3978 C   0  0  0  0  0  0  0  0  0  0  0  0
    4.1343  -16.9895    7.0572 C   0  0  0  0  0  0  0  0  0  0  0  0
    4.4695  -18.5808    6.4066 Cl  0  0  0  0  0  0  0  0  0  0  0  0
  2  1  1  6
  2  3  1  0
  3 22  2  0
  3  4  1  0
  4  5  2  0
  5  6  1  0
  6  7  1  0
  6 21  2  0
  7 20  1  0
  7  8  2  0
  8  9  1  0
 10  9  1  6
  9 17  2  0
 10 16  1  0
 10 11  1  0
 14 10  1  6
 11 12  1  0
 11 13  2  3
 15 14  1  6
 16 15  1  1
 17 18  1  0
 18 19  1  0
 18 20  2  0
 21 22  1  0
 22 23  1  0
M  CHG  1  13   1
M  END
$$$$
