
     RDKit          3D

 23 25  0  0  0  0  0  0  0  0999 V2000
    2.1828  -14.9665   11.7745 O   0  0  0  0  0  0  0  0  0  0  0  0
    2.2824  -14.2649   10.5561 C   0  0  0  0  0  0  0  0  0  0  0  0
    3.4321  -14.8680    9.8187 C   0  0  0  0  0  0  0  0  0  0  0  0
    4.1849  -15.8881   10.4045 C   0  0  0  0  0  0  0  0  0  0  0  0
    5.2364  -16.4219    9.6974 C   0  0  0  0  0  0  0  0  0  0  0  0
    5.5869  -15.9913    8.4203 C   0  0  0  0  0  0  0  0  0  0  0  0
    6.7066  -16.5995    7.7235 C   0  0  0  0  0  0  0  0  0  0  0  0
    8.0028  -16.0924    7.8450 C   0  0  0  0  0  0  0  0  0  0  0  0
    9.0585  -16.6530    7.2038 C   0  0  0  0  0  0  0  0  0  0  0  0
   10.4672  -16.2031    7.2664 C   0  0  1  0  0  0  0  0  0  0  0  0
   11.0734  -16.2168    8.6048 C   0  0  0  0  0  0  0  0  0  0  0  0
   11.6586  -17.4177    9.0753 N   0  0  0  0  0  0  0  0  0  0  0  0
   11.0776  -15.1743    9.3479 N   0  0  0  0  0  4  0  0  0  0  0  0
   11.3983  -16.9331    6.3062 C   0  0  0  0  0  0  0  0  0  0  0  0
   12.1640  -15.5958    6.2562 C   0  0  0  0  0  0  0  0  0  0  0  0
   10.7779  -14.9653    6.4615 C   0  0  0  0  0  0  0  0  0  0  0  0
    8.8096  -17.7684    6.4063 C   0  0  0  0  0  0  0  0  0  0  0  0
    7.5445  -18.3015    6.2586 C   0  0  0  0  0  0  0  0  0  0  0  0
    7.2349  -19.7035    5.2550 Cl  0  0  0  0  0  0  0  0  0  0  0  0
    6.4942  -17.7121    6.9211 C   0  0  0  0  0  0  0  0  0  0  0  0
    4.8237  -14.9843    7.8726 C   0  0  0  0  0  0  0  0  0  0  0  0
    3.7625  -14.4275    8.5552 C   0  0  0  0  0  0  0  0  0  0  0  0
    2.7850  -13.1472    7.8673 Cl  0  0  0  0  0  0  0  0  0  0  0  0
  2  1  1  6
  2  3  1  0
  3 22  2  0
  3  4  1  0
  4  5  2  0
  5  6  1  0
  6  7  1  0
  6 21  2  0
  7 20  1  0
  7  8  2  0
  8  9  1  0
 10  9  1  1
  9 17  2  0
 10 16  1  0
 10 11  1  0
 14 10  1  6
 11 12  1  0
 11 13  2  3
 15 14  1  6
 16 15  1  1
 17 18  1  0
 18 19  1  0
 18 20  2  0
 21 22  1  0
 22 23  1  0
M  CHG  1  13   1
M  END
$$$$
