
     RDKit          3D

 23 25  0  0  0  0  0  0  0  0999 V2000
    1.7972  -13.7079   15.5117 O   0  0  0  0  0  0  0  0  0  0  0  0
    3.1476  -13.5834   15.8957 C   0  0  0  0  0  0  0  0  0  0  0  0
    3.9584  -13.8938   14.6809 C   0  0  0  0  0  0  0  0  0  0  0  0
    3.3276  -14.1413   13.4598 C   0  0  0  0  0  0  0  0  0  0  0  0
    4.1042  -14.4231   12.3608 C   0  0  0  0  0  0  0  0  0  0  0  0
    5.4951  -14.4735   12.4087 C   0  0  0  0  0  0  0  0  0  0  0  0
    6.2593  -14.7723   11.2104 C   0  0  0  0  0  0  0  0  0  0  0  0
    7.4651  -14.1227   10.9343 C   0  0  0  0  0  0  0  0  0  0  0  0
    8.1914  -14.3951    9.8216 C   0  0  0  0  0  0  0  0  0  0  0  0
    9.4783  -13.7739    9.4359 C   0  0  1  0  0  0  0  0  0  0  0  0
    9.3757  -12.4429    8.8221 C   0  0  0  0  0  0  0  0  0  0  0  0
    9.1117  -11.3276    9.6542 N   0  0  0  0  0  0  0  0  0  0  0  0
    9.5144  -12.2755    7.5604 N   0  0  0  0  0  4  0  0  0  0  0  0
   10.5021  -13.7094   10.5626 C   0  0  0  0  0  0  0  0  0  0  0  0
   11.5423  -13.8644    9.4352 C   0  0  0  0  0  0  0  0  0  0  0  0
   10.4511  -14.6978    8.7456 C   0  0  0  0  0  0  0  0  0  0  0  0
    7.6924  -15.3577    8.9461 C   0  0  0  0  0  0  0  0  0  0  0  0
    6.5055  -16.0231    9.1807 C   0  0  0  0  0  0  0  0  0  0  0  0
    5.8809  -17.2324    8.0780 Cl  0  0  0  0  0  0  0  0  0  0  0  0
    5.7914  -15.7262   10.3171 C   0  0  0  0  0  0  0  0  0  0  0  0
    6.0844  -14.2245   13.6283 C   0  0  0  0  0  0  0  0  0  0  0  0
    5.3342  -13.9387   14.7497 C   0  0  0  0  0  0  0  0  0  0  0  0
    6.0739  -13.6195   16.3050 Cl  0  0  0  0  0  0  0  0  0  0  0  0
  2  1  1  6
  2  3  1  0
  3 22  2  0
  3  4  1  0
  4  5  2  0
  5  6  1  0
  6  7  1  0
  6 21  2  0
  7 20  1  0
  7  8  2  0
  8  9  1  0
 10  9  1  1
  9 17  2  0
 10 16  1  0
 10 11  1  0
 14 10  1  6
 11 12  1  0
 11 13  2  3
 15 14  1  6
 16 15  1  1
 17 18  1  0
 18 19  1  0
 18 20  2  0
 21 22  1  0
 22 23  1  0
M  CHG  1  13   1
M  END
$$$$
