
     RDKit          3D

 23 25  0  0  0  0  0  0  0  0999 V2000
    8.4591  -18.6060    4.3537 O   0  0  0  0  0  0  0  0  0  0  0  0
    9.2327  -17.5601    4.8961 C   0  0  0  0  0  0  0  0  0  0  0  0
    8.4290  -16.9814    6.0136 C   0  0  0  0  0  0  0  0  0  0  0  0
    7.3967  -17.7221    6.5934 C   0  0  0  0  0  0  0  0  0  0  0  0
    6.6772  -17.1594    7.6210 C   0  0  0  0  0  0  0  0  0  0  0  0
    6.9305  -15.8811    8.1122 C   0  0  0  0  0  0  0  0  0  0  0  0
    6.1368  -15.3450    9.2039 C   0  0  0  0  0  0  0  0  0  0  0  0
    6.4920  -15.5614   10.5378 C   0  0  0  0  0  0  0  0  0  0  0  0
    5.7628  -15.0628   11.5671 C   0  0  0  0  0  0  0  0  0  0  0  0
    6.0500  -15.2255   13.0100 C   0  0  1  0  0  0  0  0  0  0  0  0
    6.2804  -13.9774   13.7504 C   0  0  0  0  0  0  0  0  0  0  0  0
    7.5714  -13.3958   13.7202 N   0  0  0  0  0  0  0  0  0  0  0  0
    5.3455  -13.4145   14.4198 N   0  0  0  0  0  4  0  0  0  0  0  0
    5.0135  -16.0504   13.7630 C   0  0  0  0  0  0  0  0  0  0  0  0
    6.2049  -16.4865   14.6391 C   0  0  0  0  0  0  0  0  0  0  0  0
    7.0208  -16.3303   13.3466 C   0  0  0  0  0  0  0  0  0  0  0  0
    4.6295  -14.3159   11.2515 C   0  0  0  0  0  0  0  0  0  0  0  0
    4.2428  -14.0782    9.9474 C   0  0  0  0  0  0  0  0  0  0  0  0
    2.8174  -13.1391    9.5541 Cl  0  0  0  0  0  0  0  0  0  0  0  0
    5.0019  -14.5960    8.9251 C   0  0  0  0  0  0  0  0  0  0  0  0
    7.9551  -15.1787    7.5179 C   0  0  0  0  0  0  0  0  0  0  0  0
    8.6960  -15.7141    6.4852 C   0  0  0  0  0  0  0  0  0  0  0  0
   10.0018  -14.8296    5.7234 Cl  0  0  0  0  0  0  0  0  0  0  0  0
  2  1  1  6
  2  3  1  0
  3 22  2  0
  3  4  1  0
  4  5  2  0
  5  6  1  0
  6  7  1  0
  6 21  2  0
  7 20  1  0
  7  8  2  0
  8  9  1  0
 10  9  1  6
  9 17  2  0
 10 16  1  0
 10 11  1  0
 14 10  1  6
 11 12  1  0
 11 13  2  3
 15 14  1  6
 16 15  1  1
 17 18  1  0
 18 19  1  0
 18 20  2  0
 21 22  1  0
 22 23  1  0
M  CHG  1  13   1
M  END
$$$$
