
     RDKit          3D

 23 25  0  0  0  0  0  0  0  0999 V2000
    2.4158  -19.3246    7.9771 O   0  0  0  0  0  0  0  0  0  0  0  0
    3.1219  -19.3501    9.1967 C   0  0  0  0  0  0  0  0  0  0  0  0
    3.6596  -17.9718    9.3978 C   0  0  0  0  0  0  0  0  0  0  0  0
    3.2753  -16.9362    8.5431 C   0  0  0  0  0  0  0  0  0  0  0  0
    3.7886  -15.6788    8.7572 C   0  0  0  0  0  0  0  0  0  0  0  0
    4.6768  -15.3888    9.7898 C   0  0  0  0  0  0  0  0  0  0  0  0
    5.1800  -14.0378    9.9659 C   0  0  0  0  0  0  0  0  0  0  0  0
    6.5484  -13.7786   10.0768 C   0  0  0  0  0  0  0  0  0  0  0  0
    7.0325  -12.5216   10.2369 C   0  0  0  0  0  0  0  0  0  0  0  0
    8.4561  -12.1349   10.3585 C   0  0  1  0  0  0  0  0  0  0  0  0
    9.3821  -12.8571    9.4754 C   0  0  0  0  0  0  0  0  0  0  0  0
   10.0750  -13.9811    9.9878 N   0  0  0  0  0  0  0  0  0  0  0  0
    9.5755  -12.4893    8.2645 N   0  0  0  0  0  4  0  0  0  0  0  0
    8.7113  -10.6401   10.2083 C   0  0  0  0  0  0  0  0  0  0  0  0
    9.8712  -10.8832   11.1946 C   0  0  0  0  0  0  0  0  0  0  0  0
    8.9542  -11.9717   11.7733 C   0  0  0  0  0  0  0  0  0  0  0  0
    6.1106  -11.4778   10.2887 C   0  0  0  0  0  0  0  0  0  0  0  0
    4.7503  -11.6898   10.1832 C   0  0  0  0  0  0  0  0  0  0  0  0
    3.5941  -10.3756   10.2492 Cl  0  0  0  0  0  0  0  0  0  0  0  0
    4.2893  -12.9746   10.0213 C   0  0  0  0  0  0  0  0  0  0  0  0
    5.0346  -16.4328   10.6136 C   0  0  0  0  0  0  0  0  0  0  0  0
    4.5378  -17.7056   10.4262 C   0  0  0  0  0  0  0  0  0  0  0  0
    4.9855  -19.0399   11.4688 Cl  0  0  0  0  0  0  0  0  0  0  0  0
  2  1  1  6
  2  3  1  0
  3 22  2  0
  3  4  1  0
  4  5  2  0
  5  6  1  0
  6  7  1  0
  6 21  2  0
  7 20  1  0
  7  8  2  0
  8  9  1  0
 10  9  1  1
  9 17  2  0
 10 16  1  0
 10 11  1  0
 14 10  1  6
 11 12  1  0
 11 13  2  3
 15 14  1  6
 16 15  1  1
 17 18  1  0
 18 19  1  0
 18 20  2  0
 21 22  1  0
 22 23  1  0
M  CHG  1  13   1
M  END
$$$$
