
     RDKit          3D

 23 25  0  0  0  0  0  0  0  0999 V2000
    4.6060  -14.5272   17.5065 O   0  0  0  0  0  0  0  0  0  0  0  0
    4.9695  -13.4199   16.7137 C   0  0  0  0  0  0  0  0  0  0  0  0
    4.9221  -13.8866   15.2962 C   0  0  0  0  0  0  0  0  0  0  0  0
    4.4286  -15.1570   14.9911 C   0  0  0  0  0  0  0  0  0  0  0  0
    4.3982  -15.5548   13.6753 C   0  0  0  0  0  0  0  0  0  0  0  0
    4.8380  -14.7475   12.6293 C   0  0  0  0  0  0  0  0  0  0  0  0
    4.7753  -15.2246   11.2590 C   0  0  0  0  0  0  0  0  0  0  0  0
    4.1940  -14.4575   10.2463 C   0  0  0  0  0  0  0  0  0  0  0  0
    4.1327  -14.8885    8.9616 C   0  0  0  0  0  0  0  0  0  0  0  0
    3.5478  -14.1584    7.8146 C   0  0  1  0  0  0  0  0  0  0  0  0
    4.2163  -12.8978    7.4639 C   0  0  0  0  0  0  0  0  0  0  0  0
    5.4770  -12.9512    6.8208 N   0  0  0  0  0  0  0  0  0  0  0  0
    3.6870  -11.7631    7.7311 N   0  0  0  0  0  4  0  0  0  0  0  0
    3.4024  -14.9967    6.5504 C   0  0  0  0  0  0  0  0  0  0  0  0
    2.1662  -14.1160    6.2791 C   0  0  0  0  0  0  0  0  0  0  0  0
    2.0411  -14.0793    7.8100 C   0  0  0  0  0  0  0  0  0  0  0  0
    4.6749  -16.1399    8.6753 C   0  0  0  0  0  0  0  0  0  0  0  0
    5.2584  -16.9301    9.6457 C   0  0  0  0  0  0  0  0  0  0  0  0
    5.9388  -18.5028    9.2825 Cl  0  0  0  0  0  0  0  0  0  0  0  0
    5.3063  -16.4665   10.9389 C   0  0  0  0  0  0  0  0  0  0  0  0
    5.3182  -13.5013   12.9655 C   0  0  0  0  0  0  0  0  0  0  0  0
    5.3622  -13.0719   14.2754 C   0  0  0  0  0  0  0  0  0  0  0  0
    5.9699  -11.4886   14.7135 Cl  0  0  0  0  0  0  0  0  0  0  0  0
  2  1  1  6
  2  3  1  0
  3 22  2  0
  3  4  1  0
  4  5  2  0
  5  6  1  0
  6  7  1  0
  6 21  2  0
  7 20  1  0
  7  8  2  0
  8  9  1  0
 10  9  1  1
  9 17  2  0
 10 16  1  0
 10 11  1  0
 14 10  1  6
 11 12  1  0
 11 13  2  3
 15 14  1  6
 16 15  1  1
 17 18  1  0
 18 19  1  0
 18 20  2  0
 21 22  1  0
 22 23  1  0
M  CHG  1  13   1
M  END
$$$$
