
     RDKit          3D

 24 26  0  0  0  0  0  0  0  0999 V2000
    5.8865   -1.4436   -3.8592 O   0  0  0  0  0  0  0  0  0  0  0  0
    5.9569   -2.3398   -4.9347 C   0  0  1  0  0  0  0  0  0  0  0  0
    4.7563   -3.2509   -4.9297 C   0  0  0  0  0  0  0  0  0  0  0  0
    5.9270   -1.5580   -6.2380 C   0  0  0  0  0  0  0  0  0  0  0  0
    7.1821   -3.1303   -4.7956 C   0  0  0  0  0  0  0  0  0  0  0  0
    7.8337   -3.1821   -3.5891 C   0  0  0  0  0  0  0  0  0  0  0  0
    8.9849   -3.9320   -3.4780 C   0  0  0  0  0  0  0  0  0  0  0  0
    9.5408   -4.6489   -4.5133 C   0  0  0  0  0  0  0  0  0  0  0  0
   10.7615   -5.4261   -4.3392 C   0  0  0  0  0  0  0  0  0  0  0  0
   11.9158   -4.8871   -3.8081 C   0  0  0  0  0  0  0  0  0  0  0  0
   13.0712   -5.6193   -3.6430 C   0  0  0  0  0  0  0  0  0  0  0  0
   14.2757   -5.0185   -3.0847 C   0  0  1  0  0  0  0  0  0  0  0  0
   14.4934   -5.2098   -1.6395 C   0  0  0  0  0  0  0  0  0  0  0  0
   14.0685   -4.1658   -0.7341 N   0  0  0  0  0  0  0  0  0  0  0  0
   15.0406   -6.2311   -1.1138 N   0  0  0  0  0  4  0  0  0  0  0  0
   15.5168   -5.5364   -3.8521 C   0  0  0  0  0  0  0  0  0  0  0  0
   16.1201   -4.1639   -3.5138 C   0  0  0  0  0  0  0  0  0  0  0  0
   14.6660   -3.6669   -3.5633 C   0  0  0  0  0  0  0  0  0  0  0  0
   13.0663   -6.9388   -4.0250 C   0  0  0  0  0  0  0  0  0  0  0  0
   11.9310   -7.5396   -4.5675 C   0  0  0  0  0  0  0  0  0  0  0  0
   11.9501   -9.2204   -5.0459 Cl  0  0  0  0  0  0  0  0  0  0  0  0
   10.8092   -6.7529   -4.7060 C   0  0  0  0  0  0  0  0  0  0  0  0
    8.8826   -4.5929   -5.7208 C   0  0  0  0  0  0  0  0  0  0  0  0
    7.7295   -3.8516   -5.8622 C   0  0  0  0  0  0  0  0  0  0  0  0
  2  1  1  1
  3  2  1  1
  4  2  1  1
  2  5  1  0
  5 24  2  0
  5  6  1  0
  6  7  2  0
  7  8  1  0
  8  9  1  0
  8 23  2  0
  9 22  1  0
  9 10  2  0
 10 11  1  0
 12 11  1  6
 11 19  2  0
 12 18  1  0
 12 13  1  0
 16 12  1  6
 13 14  1  0
 13 15  2  3
 17 16  1  6
 18 17  1  1
 19 20  1  0
 20 21  1  0
 20 22  2  0
 23 24  1  0
M  CHG  1  15   1
M  END
$$$$
