
     RDKit          3D

 24 26  0  0  0  0  0  0  0  0999 V2000
    4.8310  -15.4495    8.2160 O   0  0  0  0  0  0  0  0  0  0  0  0
    3.8048  -15.6095    9.1573 C   0  0  1  0  0  0  0  0  0  0  0  0
    2.6846  -14.6422    8.8723 C   0  0  0  0  0  0  0  0  0  0  0  0
    3.2330  -17.0128    9.0380 C   0  0  0  0  0  0  0  0  0  0  0  0
    4.3575  -15.3523   10.4891 C   0  0  0  0  0  0  0  0  0  0  0  0
    5.6902  -15.0602   10.6358 C   0  0  0  0  0  0  0  0  0  0  0  0
    6.1914  -14.8206   11.8972 C   0  0  0  0  0  0  0  0  0  0  0  0
    5.4347  -14.8539   13.0465 C   0  0  0  0  0  0  0  0  0  0  0  0
    6.0178  -14.5917   14.3564 C   0  0  0  0  0  0  0  0  0  0  0  0
    7.3446  -14.8423   14.6425 C   0  0  0  0  0  0  0  0  0  0  0  0
    7.8982  -14.5960   15.8799 C   0  0  0  0  0  0  0  0  0  0  0  0
    9.3019  -14.8775   16.1516 C   0  0  1  0  0  0  0  0  0  0  0  0
   10.1938  -13.7097   16.2658 C   0  0  0  0  0  0  0  0  0  0  0  0
    9.6398  -12.3940   16.0367 N   0  0  0  0  0  0  0  0  0  0  0  0
   11.4336  -13.7641   16.5462 N   0  0  0  0  0  4  0  0  0  0  0  0
    9.4201  -15.7272   17.4406 C   0  0  0  0  0  0  0  0  0  0  0  0
   10.6726  -16.3118   16.7685 C   0  0  0  0  0  0  0  0  0  0  0  0
    9.9293  -16.0291   15.4526 C   0  0  0  0  0  0  0  0  0  0  0  0
    7.0902  -14.0803   16.8638 C   0  0  0  0  0  0  0  0  0  0  0  0
    5.7424  -13.8061   16.6353 C   0  0  0  0  0  0  0  0  0  0  0  0
    4.7351  -13.1500   17.9039 Cl  0  0  0  0  0  0  0  0  0  0  0  0
    5.2510  -14.0748   15.3772 C   0  0  0  0  0  0  0  0  0  0  0  0
    4.0988  -15.1474   12.8928 C   0  0  0  0  0  0  0  0  0  0  0  0
    3.5690  -15.3915   11.6442 C   0  0  0  0  0  0  0  0  0  0  0  0
  2  1  1  6
  3  2  1  1
  4  2  1  1
  2  5  1  0
  5 24  2  0
  5  6  1  0
  6  7  2  0
  7  8  1  0
  8  9  1  0
  8 23  2  0
  9 22  1  0
  9 10  2  0
 10 11  1  0
 12 11  1  6
 11 19  2  0
 12 18  1  0
 12 13  1  0
 16 12  1  6
 13 14  1  0
 13 15  2  3
 17 16  1  6
 18 17  1  1
 19 20  1  0
 20 21  1  0
 20 22  2  0
 23 24  1  0
M  CHG  1  15   1
M  END
$$$$
