
     RDKit          3D

 24 26  0  0  0  0  0  0  0  0999 V2000
   11.6970   -8.5507    5.2615 O   0  0  0  0  0  0  0  0  0  0  0  0
   11.1750   -7.2612    5.0892 C   0  0  1  0  0  0  0  0  0  0  0  0
    9.8661   -7.1293    5.8247 C   0  0  0  0  0  0  0  0  0  0  0  0
   12.1368   -6.2495    5.6910 C   0  0  0  0  0  0  0  0  0  0  0  0
   10.9659   -7.0367    3.6571 C   0  0  0  0  0  0  0  0  0  0  0  0
   11.6537   -7.7861    2.7359 C   0  0  0  0  0  0  0  0  0  0  0  0
   11.4427   -7.5604    1.3927 C   0  0  0  0  0  0  0  0  0  0  0  0
   10.5722   -6.6163    0.8971 C   0  0  0  0  0  0  0  0  0  0  0  0
   10.3879   -6.4202   -0.5355 C   0  0  0  0  0  0  0  0  0  0  0  0
   11.4315   -6.1067   -1.3826 C   0  0  0  0  0  0  0  0  0  0  0  0
   11.2600   -5.9203   -2.7369 C   0  0  0  0  0  0  0  0  0  0  0  0
   12.3822   -5.5838   -3.6036 C   0  0  1  0  0  0  0  0  0  0  0  0
   12.6118   -4.1489   -3.8501 C   0  0  0  0  0  0  0  0  0  0  0  0
   11.7541   -3.4651   -4.7920 N   0  0  0  0  0  0  0  0  0  0  0  0
   13.5226   -3.4515   -3.2997 N   0  0  0  0  0  4  0  0  0  0  0  0
   13.6802   -6.2098   -3.0375 C   0  0  0  0  0  0  0  0  0  0  0  0
   14.1161   -6.2833   -4.5094 C   0  0  0  0  0  0  0  0  0  0  0  0
   12.6140   -6.4299   -4.8029 C   0  0  0  0  0  0  0  0  0  0  0  0
    9.9959   -6.0534   -3.2577 C   0  0  0  0  0  0  0  0  0  0  0  0
    8.9021   -6.3689   -2.4528 C   0  0  0  0  0  0  0  0  0  0  0  0
    7.3033   -6.5327   -3.1396 Cl  0  0  0  0  0  0  0  0  0  0  0  0
    9.1410   -6.5424   -1.1077 C   0  0  0  0  0  0  0  0  0  0  0  0
    9.8854   -5.8679    1.8258 C   0  0  0  0  0  0  0  0  0  0  0  0
   10.0754   -6.0709    3.1757 C   0  0  0  0  0  0  0  0  0  0  0  0
  2  1  1  6
  3  2  1  1
  4  2  1  1
  2  5  1  0
  5 24  2  0
  5  6  1  0
  6  7  2  0
  7  8  1  0
  8  9  1  0
  8 23  2  0
  9 22  1  0
  9 10  2  0
 10 11  1  0
 12 11  1  1
 11 19  2  0
 12 18  1  0
 12 13  1  0
 16 12  1  6
 13 14  1  0
 13 15  2  3
 17 16  1  6
 18 17  1  1
 19 20  1  0
 20 21  1  0
 20 22  2  0
 23 24  1  0
M  CHG  1  15   1
M  END
$$$$
