
     RDKit          3D

 24 26  0  0  0  0  0  0  0  0999 V2000
    9.2232   -7.1421    8.8984 O   0  0  0  0  0  0  0  0  0  0  0  0
    9.9472   -8.3424    8.9074 C   0  0  1  0  0  0  0  0  0  0  0  0
   10.3646   -8.7064    7.5057 C   0  0  0  0  0  0  0  0  0  0  0  0
   11.2158   -8.1533    9.7232 C   0  0  0  0  0  0  0  0  0  0  0  0
    9.0895   -9.3932    9.4600 C   0  0  0  0  0  0  0  0  0  0  0  0
    9.5931  -10.6523    9.6698 C   0  0  0  0  0  0  0  0  0  0  0  0
    8.7704  -11.6276   10.1912 C   0  0  0  0  0  0  0  0  0  0  0  0
    7.4502  -11.4253   10.5242 C   0  0  0  0  0  0  0  0  0  0  0  0
    6.6254  -12.4943   11.0733 C   0  0  0  0  0  0  0  0  0  0  0  0
    6.4949  -13.7227   10.4576 C   0  0  0  0  0  0  0  0  0  0  0  0
    5.7155  -14.7346   10.9740 C   0  0  0  0  0  0  0  0  0  0  0  0
    5.5938  -16.0187   10.2959 C   0  0  1  0  0  0  0  0  0  0  0  0
    4.2531  -16.3699    9.7944 C   0  0  0  0  0  0  0  0  0  0  0  0
    3.7296  -15.6441    8.6589 N   0  0  0  0  0  0  0  0  0  0  0  0
    3.5017  -17.2687   10.2908 N   0  0  0  0  0  4  0  0  0  0  0  0
    6.6014  -16.0824    9.1219 C   0  0  0  0  0  0  0  0  0  0  0  0
    6.6221  -17.5919    9.4104 C   0  0  0  0  0  0  0  0  0  0  0  0
    6.3309  -17.1780   10.8623 C   0  0  0  0  0  0  0  0  0  0  0  0
    5.0438  -14.5039   12.1499 C   0  0  0  0  0  0  0  0  0  0  0  0
    5.1362  -13.2838   12.8184 C   0  0  0  0  0  0  0  0  0  0  0  0
    4.2717  -13.0149   14.3133 Cl  0  0  0  0  0  0  0  0  0  0  0  0
    5.9316  -12.3143   12.2495 C   0  0  0  0  0  0  0  0  0  0  0  0
    6.9510  -10.1605   10.3114 C   0  0  0  0  0  0  0  0  0  0  0  0
    7.7495   -9.1648    9.7914 C   0  0  0  0  0  0  0  0  0  0  0  0
  2  1  1  6
  3  2  1  1
  4  2  1  1
  2  5  1  0
  5 24  2  0
  5  6  1  0
  6  7  2  0
  7  8  1  0
  8  9  1  0
  8 23  2  0
  9 22  1  0
  9 10  2  0
 10 11  1  0
 12 11  1  1
 11 19  2  0
 12 18  1  0
 12 13  1  0
 16 12  1  6
 13 14  1  0
 13 15  2  3
 17 16  1  6
 18 17  1  1
 19 20  1  0
 20 21  1  0
 20 22  2  0
 23 24  1  0
M  CHG  1  15   1
M  END
$$$$
