
     RDKit          3D

 24 26  0  0  0  0  0  0  0  0999 V2000
   11.6145   -4.9099   -5.8580 O   0  0  0  0  0  0  0  0  0  0  0  0
   12.3406   -5.8246   -5.0827 C   0  0  1  0  0  0  0  0  0  0  0  0
   12.0846   -7.2298   -5.5638 C   0  0  0  0  0  0  0  0  0  0  0  0
   13.8265   -5.5517   -5.2509 C   0  0  0  0  0  0  0  0  0  0  0  0
   11.9110   -5.6898   -3.6890 C   0  0  0  0  0  0  0  0  0  0  0  0
   11.8337   -6.7977   -2.8830 C   0  0  0  0  0  0  0  0  0  0  0  0
   11.4279   -6.6503   -1.5740 C   0  0  0  0  0  0  0  0  0  0  0  0
   11.0868   -5.4448   -1.0039 C   0  0  0  0  0  0  0  0  0  0  0  0
   10.6642   -5.3469    0.3877 C   0  0  0  0  0  0  0  0  0  0  0  0
    9.8712   -4.3172    0.8525 C   0  0  0  0  0  0  0  0  0  0  0  0
    9.4708   -4.2219    2.1673 C   0  0  0  0  0  0  0  0  0  0  0  0
    8.6382   -3.1182    2.6277 C   0  0  1  0  0  0  0  0  0  0  0  0
    7.4909   -3.4753    3.4814 C   0  0  0  0  0  0  0  0  0  0  0  0
    6.1787   -3.5467    2.8787 N   0  0  0  0  0  0  0  0  0  0  0  0
    7.5590   -3.7225    4.7277 N   0  0  0  0  0  4  0  0  0  0  0  0
    9.5156   -2.0829    3.3733 C   0  0  0  0  0  0  0  0  0  0  0  0
    8.4965   -1.0576    2.8516 C   0  0  0  0  0  0  0  0  0  0  0  0
    8.3373   -2.0249    1.6672 C   0  0  0  0  0  0  0  0  0  0  0  0
    9.8817   -5.1951    3.0454 C   0  0  0  0  0  0  0  0  0  0  0  0
   10.6833   -6.2598    2.6355 C   0  0  0  0  0  0  0  0  0  0  0  0
   11.1930   -7.4855    3.7722 Cl  0  0  0  0  0  0  0  0  0  0  0  0
   11.0486   -6.2966    1.3082 C   0  0  0  0  0  0  0  0  0  0  0  0
   11.1663   -4.3374   -1.8173 C   0  0  0  0  0  0  0  0  0  0  0  0
   11.5688   -4.4536   -3.1302 C   0  0  0  0  0  0  0  0  0  0  0  0
  2  1  1  6
  3  2  1  1
  4  2  1  1
  2  5  1  0
  5 24  2  0
  5  6  1  0
  6  7  2  0
  7  8  1  0
  8  9  1  0
  8 23  2  0
  9 22  1  0
  9 10  2  0
 10 11  1  0
 12 11  1  6
 11 19  2  0
 12 18  1  0
 12 13  1  0
 16 12  1  6
 13 14  1  0
 13 15  2  3
 17 16  1  6
 18 17  1  1
 19 20  1  0
 20 21  1  0
 20 22  2  0
 23 24  1  0
M  CHG  1  15   1
M  END
$$$$
