
     RDKit          3D

 24 26  0  0  0  0  0  0  0  0999 V2000
   11.0247  -10.0949    6.7457 O   0  0  0  0  0  0  0  0  0  0  0  0
   10.7447   -9.6103    8.0309 C   0  0  1  0  0  0  0  0  0  0  0  0
   12.0011   -9.5921    8.8631 C   0  0  0  0  0  0  0  0  0  0  0  0
   10.2496   -8.1769    7.9263 C   0  0  0  0  0  0  0  0  0  0  0  0
    9.7513  -10.4915    8.6488 C   0  0  0  0  0  0  0  0  0  0  0  0
    9.0869  -10.0915    9.7809 C   0  0  0  0  0  0  0  0  0  0  0  0
    8.1551  -10.9347   10.3473 C   0  0  0  0  0  0  0  0  0  0  0  0
    7.8357  -12.1771    9.8482 C   0  0  0  0  0  0  0  0  0  0  0  0
    6.8405  -13.0280   10.4886 C   0  0  0  0  0  0  0  0  0  0  0  0
    7.1347  -13.8265   11.5754 C   0  0  0  0  0  0  0  0  0  0  0  0
    6.1963  -14.6323   12.1822 C   0  0  0  0  0  0  0  0  0  0  0  0
    6.5407  -15.4686   13.3248 C   0  0  1  0  0  0  0  0  0  0  0  0
    5.4509  -16.2822   13.8929 C   0  0  0  0  0  0  0  0  0  0  0  0
    4.5954  -15.6861   14.8944 N   0  0  0  0  0  0  0  0  0  0  0  0
    5.2007  -17.4887   13.5758 N   0  0  0  0  0  4  0  0  0  0  0  0
    7.7190  -16.4001   12.9488 C   0  0  0  0  0  0  0  0  0  0  0  0
    8.0885  -16.2956   14.4369 C   0  0  0  0  0  0  0  0  0  0  0  0
    7.4477  -14.9003   14.3556 C   0  0  0  0  0  0  0  0  0  0  0  0
    4.9179  -14.6358   11.6794 C   0  0  0  0  0  0  0  0  0  0  0  0
    4.5601  -13.8508   10.5840 C   0  0  0  0  0  0  0  0  0  0  0  0
    2.9267  -13.8729    9.9628 Cl  0  0  0  0  0  0  0  0  0  0  0  0
    5.5447  -13.0680   10.0234 C   0  0  0  0  0  0  0  0  0  0  0  0
    8.5054  -12.5725    8.7127 C   0  0  0  0  0  0  0  0  0  0  0  0
    9.4423  -11.7510    8.1239 C   0  0  0  0  0  0  0  0  0  0  0  0
  2  1  1  6
  3  2  1  1
  4  2  1  1
  2  5  1  0
  5 24  2  0
  5  6  1  0
  6  7  2  0
  7  8  1  0
  8  9  1  0
  8 23  2  0
  9 22  1  0
  9 10  2  0
 10 11  1  0
 12 11  1  6
 11 19  2  0
 12 18  1  0
 12 13  1  0
 16 12  1  6
 13 14  1  0
 13 15  2  3
 17 16  1  6
 18 17  1  1
 19 20  1  0
 20 21  1  0
 20 22  2  0
 23 24  1  0
M  CHG  1  15   1
M  END
$$$$
