
     RDKit          3D

 24 26  0  0  0  0  0  0  0  0999 V2000
   10.7367  -16.8047    4.5255 O   0  0  0  0  0  0  0  0  0  0  0  0
    9.8816  -17.8035    5.0114 C   0  0  1  0  0  0  0  0  0  0  0  0
    8.9653  -18.2802    3.9138 C   0  0  0  0  0  0  0  0  0  0  0  0
   10.7114  -18.9960    5.4587 C   0  0  0  0  0  0  0  0  0  0  0  0
    9.0923  -17.2399    6.1089 C   0  0  0  0  0  0  0  0  0  0  0  0
    9.1529  -15.8961    6.3801 C   0  0  0  0  0  0  0  0  0  0  0  0
    8.4023  -15.3846    7.4168 C   0  0  0  0  0  0  0  0  0  0  0  0
    7.5775  -16.1413    8.2178 C   0  0  0  0  0  0  0  0  0  0  0  0
    6.8049  -15.5470    9.3015 C   0  0  0  0  0  0  0  0  0  0  0  0
    7.3475  -14.6413   10.1906 C   0  0  0  0  0  0  0  0  0  0  0  0
    6.6198  -14.0784   11.2162 C   0  0  0  0  0  0  0  0  0  0  0  0
    7.2243  -13.1294   12.1423 C   0  0  1  0  0  0  0  0  0  0  0  0
    7.3591  -13.5746   13.5409 C   0  0  0  0  0  0  0  0  0  0  0  0
    8.4472  -14.4642   13.8796 N   0  0  0  0  0  0  0  0  0  0  0  0
    6.5796  -13.2419   14.4899 N   0  0  0  0  0  4  0  0  0  0  0  0
    8.6165  -12.7050   11.6142 C   0  0  0  0  0  0  0  0  0  0  0  0
    8.3201  -11.3736   12.3223 C   0  0  0  0  0  0  0  0  0  0  0  0
    6.8487  -11.6973   12.0157 C   0  0  0  0  0  0  0  0  0  0  0  0
    5.3012  -14.4383   11.3531 C   0  0  0  0  0  0  0  0  0  0  0  0
    4.6969  -15.3480   10.4862 C   0  0  0  0  0  0  0  0  0  0  0  0
    3.0173  -15.7898   10.6813 Cl  0  0  0  0  0  0  0  0  0  0  0  0
    5.4792  -15.8740    9.4823 C   0  0  0  0  0  0  0  0  0  0  0  0
    7.5210  -17.4883    7.9409 C   0  0  0  0  0  0  0  0  0  0  0  0
    8.2601  -18.0286    6.9108 C   0  0  0  0  0  0  0  0  0  0  0  0
  2  1  1  6
  3  2  1  1
  4  2  1  1
  2  5  1  0
  5 24  2  0
  5  6  1  0
  6  7  2  0
  7  8  1  0
  8  9  1  0
  8 23  2  0
  9 22  1  0
  9 10  2  0
 10 11  1  0
 12 11  1  6
 11 19  2  0
 12 18  1  0
 12 13  1  0
 16 12  1  6
 13 14  1  0
 13 15  2  3
 17 16  1  6
 18 17  1  1
 19 20  1  0
 20 21  1  0
 20 22  2  0
 23 24  1  0
M  CHG  1  15   1
M  END
$$$$
