
     RDKit          3D

 24 26  0  0  0  0  0  0  0  0999 V2000
    6.7630  -19.0475    5.6581 O   0  0  0  0  0  0  0  0  0  0  0  0
    6.2076  -17.7750    5.4650 C   0  0  1  0  0  0  0  0  0  0  0  0
    7.1227  -16.9340    4.6125 C   0  0  0  0  0  0  0  0  0  0  0  0
    4.8918  -17.9137    4.7166 C   0  0  0  0  0  0  0  0  0  0  0  0
    6.0310  -17.1460    6.7758 C   0  0  0  0  0  0  0  0  0  0  0  0
    6.0725  -17.9088    7.9158 C   0  0  0  0  0  0  0  0  0  0  0  0
    5.9047  -17.2983    9.1401 C   0  0  0  0  0  0  0  0  0  0  0  0
    5.6939  -15.9483    9.3058 C   0  0  0  0  0  0  0  0  0  0  0  0
    5.5231  -15.3552   10.6263 C   0  0  0  0  0  0  0  0  0  0  0  0
    6.5890  -14.9298   11.3931 C   0  0  0  0  0  0  0  0  0  0  0  0
    6.4305  -14.3695   12.6417 C   0  0  0  0  0  0  0  0  0  0  0  0
    7.5776  -13.9360   13.4290 C   0  0  1  0  0  0  0  0  0  0  0  0
    8.1553  -14.9328   14.3482 C   0  0  0  0  0  0  0  0  0  0  0  0
    9.3317  -15.6596   13.9264 N   0  0  0  0  0  0  0  0  0  0  0  0
    7.6925  -15.2176   15.4987 N   0  0  0  0  0  4  0  0  0  0  0  0
    8.6903  -13.4209   12.4834 C   0  0  0  0  0  0  0  0  0  0  0  0
    9.0539  -12.4913   13.6520 C   0  0  0  0  0  0  0  0  0  0  0  0
    7.5561  -12.5610   13.9922 C   0  0  0  0  0  0  0  0  0  0  0  0
    5.1565  -14.2321   13.1370 C   0  0  0  0  0  0  0  0  0  0  0  0
    4.0402  -14.6428   12.4096 C   0  0  0  0  0  0  0  0  0  0  0  0
    2.4294  -14.4572   13.0618 Cl  0  0  0  0  0  0  0  0  0  0  0  0
    4.2671  -15.1949   11.1685 C   0  0  0  0  0  0  0  0  0  0  0  0
    5.6533  -15.1886    8.1589 C   0  0  0  0  0  0  0  0  0  0  0  0
    5.8178  -15.7709    6.9206 C   0  0  0  0  0  0  0  0  0  0  0  0
  2  1  1  1
  3  2  1  1
  4  2  1  1
  2  5  1  0
  5 24  2  0
  5  6  1  0
  6  7  2  0
  7  8  1  0
  8  9  1  0
  8 23  2  0
  9 22  1  0
  9 10  2  0
 10 11  1  0
 12 11  1  6
 11 19  2  0
 12 18  1  0
 12 13  1  0
 16 12  1  6
 13 14  1  0
 13 15  2  3
 17 16  1  6
 18 17  1  1
 19 20  1  0
 20 21  1  0
 20 22  2  0
 23 24  1  0
M  CHG  1  15   1
M  END
$$$$
