
     RDKit          3D

 24 26  0  0  0  0  0  0  0  0999 V2000
   13.2242  -15.5183    8.5321 O   0  0  0  0  0  0  0  0  0  0  0  0
   12.6583  -16.3781    7.5806 C   0  0  1  0  0  0  0  0  0  0  0  0
   13.0434  -15.9387    6.1912 C   0  0  0  0  0  0  0  0  0  0  0  0
   13.2123  -17.7791    7.7825 C   0  0  0  0  0  0  0  0  0  0  0  0
   11.2020  -16.3356    7.7302 C   0  0  0  0  0  0  0  0  0  0  0  0
   10.4493  -17.4485    7.4508 C   0  0  0  0  0  0  0  0  0  0  0  0
    9.0801  -17.3889    7.5983 C   0  0  0  0  0  0  0  0  0  0  0  0
    8.3978  -16.2685    8.0151 C   0  0  0  0  0  0  0  0  0  0  0  0
    6.9468  -16.2618    8.1540 C   0  0  0  0  0  0  0  0  0  0  0  0
    6.1010  -16.6408    7.1313 C   0  0  0  0  0  0  0  0  0  0  0  0
    4.7292  -16.6349    7.2597 C   0  0  0  0  0  0  0  0  0  0  0  0
    3.8633  -17.0352    6.1581 C   0  0  1  0  0  0  0  0  0  0  0  0
    3.1301  -15.9542    5.4753 C   0  0  0  0  0  0  0  0  0  0  0  0
    3.8235  -14.7147    5.2046 N   0  0  0  0  0  0  0  0  0  0  0  0
    1.9146  -16.0189    5.1049 N   0  0  0  0  0  4  0  0  0  0  0  0
    4.6879  -17.8221    5.1102 C   0  0  0  0  0  0  0  0  0  0  0  0
    3.3676  -18.5596    4.8364 C   0  0  0  0  0  0  0  0  0  0  0  0
    3.0636  -18.2776    6.3170 C   0  0  0  0  0  0  0  0  0  0  0  0
    4.1889  -16.2340    8.4573 C   0  0  0  0  0  0  0  0  0  0  0  0
    4.9915  -15.8400    9.5271 C   0  0  0  0  0  0  0  0  0  0  0  0
    4.2798  -15.3340   11.0410 Cl  0  0  0  0  0  0  0  0  0  0  0  0
    6.3548  -15.8688    9.3339 C   0  0  0  0  0  0  0  0  0  0  0  0
    9.1582  -15.1557    8.2938 C   0  0  0  0  0  0  0  0  0  0  0  0
   10.5291  -15.1851    8.1556 C   0  0  0  0  0  0  0  0  0  0  0  0
  2  1  1  1
  3  2  1  1
  4  2  1  1
  2  5  1  0
  5 24  2  0
  5  6  1  0
  6  7  2  0
  7  8  1  0
  8  9  1  0
  8 23  2  0
  9 22  1  0
  9 10  2  0
 10 11  1  0
 12 11  1  1
 11 19  2  0
 12 18  1  0
 12 13  1  0
 16 12  1  6
 13 14  1  0
 13 15  2  3
 17 16  1  6
 18 17  1  1
 19 20  1  0
 20 21  1  0
 20 22  2  0
 23 24  1  0
M  CHG  1  15   1
M  END
$$$$
