
     RDKit          3D

 24 26  0  0  0  0  0  0  0  0999 V2000
    2.7157   -4.8876   -1.9519 O   0  0  0  0  0  0  0  0  0  0  0  0
    3.6697   -4.7182   -0.9390 C   0  0  1  0  0  0  0  0  0  0  0  0
    3.6326   -3.3025   -0.4235 C   0  0  0  0  0  0  0  0  0  0  0  0
    3.3282   -5.6335    0.2256 C   0  0  0  0  0  0  0  0  0  0  0  0
    4.9916   -5.0097   -1.4982 C   0  0  0  0  0  0  0  0  0  0  0  0
    5.8916   -5.7581   -0.7818 C   0  0  0  0  0  0  0  0  0  0  0  0
    7.1304   -6.0222   -1.3254 C   0  0  0  0  0  0  0  0  0  0  0  0
    7.5394   -5.5796   -2.5629 C   0  0  0  0  0  0  0  0  0  0  0  0
    8.8628   -5.8894   -3.0892 C   0  0  0  0  0  0  0  0  0  0  0  0
    9.5984   -4.9854   -3.8288 C   0  0  0  0  0  0  0  0  0  0  0  0
   10.8493   -5.2758   -4.3280 C   0  0  0  0  0  0  0  0  0  0  0  0
   11.5978   -4.3009   -5.1108 C   0  0  1  0  0  0  0  0  0  0  0  0
   12.5534   -3.4597   -4.3683 C   0  0  0  0  0  0  0  0  0  0  0  0
   12.1569   -2.9389   -3.0792 N   0  0  0  0  0  0  0  0  0  0  0  0
   13.7154   -3.1415   -4.7776 N   0  0  0  0  0  4  0  0  0  0  0  0
   12.3490   -5.0227   -6.2562 C   0  0  0  0  0  0  0  0  0  0  0  0
   12.1560   -3.7035   -7.0207 C   0  0  0  0  0  0  0  0  0  0  0  0
   10.8757   -3.5647   -6.1808 C   0  0  0  0  0  0  0  0  0  0  0  0
   11.3791   -6.5178   -4.0753 C   0  0  0  0  0  0  0  0  0  0  0  0
   10.6844   -7.4731   -3.3345 C   0  0  0  0  0  0  0  0  0  0  0  0
   11.3803   -9.0464   -3.0267 Cl  0  0  0  0  0  0  0  0  0  0  0  0
    9.4392   -7.1199   -2.8641 C   0  0  0  0  0  0  0  0  0  0  0  0
    6.6324   -4.8296   -3.2765 C   0  0  0  0  0  0  0  0  0  0  0  0
    5.3862   -4.5492   -2.7590 C   0  0  0  0  0  0  0  0  0  0  0  0
  2  1  1  6
  3  2  1  1
  4  2  1  1
  2  5  1  0
  5 24  2  0
  5  6  1  0
  6  7  2  0
  7  8  1  0
  8  9  1  0
  8 23  2  0
  9 22  1  0
  9 10  2  0
 10 11  1  0
 12 11  1  1
 11 19  2  0
 12 18  1  0
 12 13  1  0
 16 12  1  6
 13 14  1  0
 13 15  2  3
 17 16  1  6
 18 17  1  1
 19 20  1  0
 20 21  1  0
 20 22  2  0
 23 24  1  0
M  CHG  1  15   1
M  END
$$$$
