
     RDKit          3D

 24 26  0  0  0  0  0  0  0  0999 V2000
   17.5689   -5.6734    0.0002 O   0  0  0  0  0  0  0  0  0  0  0  0
   17.4648   -4.9389   -1.1891 C   0  0  1  0  0  0  0  0  0  0  0  0
   17.5987   -3.4655   -0.9018 C   0  0  0  0  0  0  0  0  0  0  0  0
   18.6063   -5.3255   -2.1155 C   0  0  0  0  0  0  0  0  0  0  0  0
   16.1555   -5.2126   -1.7859 C   0  0  0  0  0  0  0  0  0  0  0  0
   15.1609   -5.7814   -1.0308 C   0  0  0  0  0  0  0  0  0  0  0  0
   13.9354   -6.0307   -1.6103 C   0  0  0  0  0  0  0  0  0  0  0  0
   13.6301   -5.7438   -2.9214 C   0  0  0  0  0  0  0  0  0  0  0  0
   12.3155   -6.0288   -3.4827 C   0  0  0  0  0  0  0  0  0  0  0  0
   11.5375   -5.0589   -4.0821 C   0  0  0  0  0  0  0  0  0  0  0  0
   10.2944   -5.3254   -4.6129 C   0  0  0  0  0  0  0  0  0  0  0  0
    9.4950   -4.2772   -5.2339 C   0  0  1  0  0  0  0  0  0  0  0  0
    8.4654   -3.6498   -4.3861 C   0  0  0  0  0  0  0  0  0  0  0  0
    8.8655   -2.5948   -3.4821 N   0  0  0  0  0  0  0  0  0  0  0  0
    7.2341   -3.9701   -4.3775 N   0  0  0  0  0  4  0  0  0  0  0  0
   10.4285   -3.1738   -5.7893 C   0  0  0  0  0  0  0  0  0  0  0  0
    9.3302   -2.9775   -6.8464 C   0  0  0  0  0  0  0  0  0  0  0  0
    9.0564   -4.4763   -6.6397 C   0  0  0  0  0  0  0  0  0  0  0  0
    9.8164   -6.6112   -4.5386 C   0  0  0  0  0  0  0  0  0  0  0  0
   10.5557   -7.6337   -3.9454 C   0  0  0  0  0  0  0  0  0  0  0  0
    9.9255   -9.2618   -3.8632 Cl  0  0  0  0  0  0  0  0  0  0  0  0
   11.7905   -7.3013   -3.4342 C   0  0  0  0  0  0  0  0  0  0  0  0
   14.6317   -5.1734   -3.6736 C   0  0  0  0  0  0  0  0  0  0  0  0
   15.8673   -4.9124   -3.1217 C   0  0  0  0  0  0  0  0  0  0  0  0
  2  1  1  1
  3  2  1  1
  4  2  1  1
  2  5  1  0
  5 24  2  0
  5  6  1  0
  6  7  2  0
  7  8  1  0
  8  9  1  0
  8 23  2  0
  9 22  1  0
  9 10  2  0
 10 11  1  0
 12 11  1  1
 11 19  2  0
 12 18  1  0
 12 13  1  0
 16 12  1  6
 13 14  1  0
 13 15  2  3
 17 16  1  6
 18 17  1  1
 19 20  1  0
 20 21  1  0
 20 22  2  0
 23 24  1  0
M  CHG  1  15   1
M  END
$$$$
