
     RDKit          3D

 24 26  0  0  0  0  0  0  0  0999 V2000
    4.4969   -2.9028   -1.9733 O   0  0  0  0  0  0  0  0  0  0  0  0
    4.7695   -4.2065   -1.5363 C   0  0  1  0  0  0  0  0  0  0  0  0
    4.7649   -4.2598   -0.0301 C   0  0  0  0  0  0  0  0  0  0  0  0
    3.6713   -5.1364   -2.0259 C   0  0  0  0  0  0  0  0  0  0  0  0
    6.0870   -4.5961   -2.0439 C   0  0  0  0  0  0  0  0  0  0  0  0
    6.7312   -5.6877   -1.5181 C   0  0  0  0  0  0  0  0  0  0  0  0
    7.9702   -6.0388   -2.0096 C   0  0  0  0  0  0  0  0  0  0  0  0
    8.6228   -5.3583   -3.0124 C   0  0  0  0  0  0  0  0  0  0  0  0
    9.9339   -5.7747   -3.4943 C   0  0  0  0  0  0  0  0  0  0  0  0
   10.9550   -4.8784   -3.7375 C   0  0  0  0  0  0  0  0  0  0  0  0
   12.1949   -5.2692   -4.1936 C   0  0  0  0  0  0  0  0  0  0  0  0
   13.2503   -4.2967   -4.4466 C   0  0  1  0  0  0  0  0  0  0  0  0
   14.6258   -4.7286   -4.1403 C   0  0  0  0  0  0  0  0  0  0  0  0
   15.0686   -6.0162   -4.6264 N   0  0  0  0  0  0  0  0  0  0  0  0
   15.4680   -4.0548   -3.4655 N   0  0  0  0  0  4  0  0  0  0  0  0
   13.1863   -3.8346   -5.9230 C   0  0  0  0  0  0  0  0  0  0  0  0
   13.7424   -2.5080   -5.3818 C   0  0  0  0  0  0  0  0  0  0  0  0
   12.9885   -2.8771   -4.0937 C   0  0  0  0  0  0  0  0  0  0  0  0
   12.4162   -6.6070   -4.4131 C   0  0  0  0  0  0  0  0  0  0  0  0
   11.4242   -7.5600   -4.1856 C   0  0  0  0  0  0  0  0  0  0  0  0
   11.7306   -9.2566   -4.4725 Cl  0  0  0  0  0  0  0  0  0  0  0  0
   10.2073   -7.1039   -3.7300 C   0  0  0  0  0  0  0  0  0  0  0  0
    7.9716   -4.2644   -3.5356 C   0  0  0  0  0  0  0  0  0  0  0  0
    6.7320   -3.8891   -3.0645 C   0  0  0  0  0  0  0  0  0  0  0  0
  2  1  1  1
  3  2  1  1
  4  2  1  1
  2  5  1  0
  5 24  2  0
  5  6  1  0
  6  7  2  0
  7  8  1  0
  8  9  1  0
  8 23  2  0
  9 22  1  0
  9 10  2  0
 10 11  1  0
 12 11  1  6
 11 19  2  0
 12 18  1  0
 12 13  1  0
 16 12  1  6
 13 14  1  0
 13 15  2  3
 17 16  1  6
 18 17  1  1
 19 20  1  0
 20 21  1  0
 20 22  2  0
 23 24  1  0
M  CHG  1  15   1
M  END
$$$$
