
     RDKit          3D

 24 26  0  0  0  0  0  0  0  0999 V2000
    7.1448  -15.1841   15.8800 O   0  0  0  0  0  0  0  0  0  0  0  0
    6.1585  -14.2692   15.4861 C   0  0  1  0  0  0  0  0  0  0  0  0
    4.9233  -14.4424   16.3321 C   0  0  0  0  0  0  0  0  0  0  0  0
    6.6697  -12.8560   15.7145 C   0  0  0  0  0  0  0  0  0  0  0  0
    5.8366  -14.5168   14.0789 C   0  0  0  0  0  0  0  0  0  0  0  0
    6.1052  -15.7396   13.5169 C   0  0  0  0  0  0  0  0  0  0  0  0
    5.7944  -15.9535   12.1912 C   0  0  0  0  0  0  0  0  0  0  0  0
    5.2211  -15.0079   11.3716 C   0  0  0  0  0  0  0  0  0  0  0  0
    4.9130  -15.2890    9.9750 C   0  0  0  0  0  0  0  0  0  0  0  0
    5.8700  -15.7089    9.0732 C   0  0  0  0  0  0  0  0  0  0  0  0
    5.5817  -15.9747    7.7524 C   0  0  0  0  0  0  0  0  0  0  0  0
    6.6167  -16.4107    6.8239 C   0  0  1  0  0  0  0  0  0  0  0  0
    6.3011  -17.5905    5.9986 C   0  0  0  0  0  0  0  0  0  0  0  0
    5.1192  -18.3594    6.3181 N   0  0  0  0  0  0  0  0  0  0  0  0
    6.9984  -18.0004    5.0164 N   0  0  0  0  0  4  0  0  0  0  0  0
    7.0059  -15.2364    5.8928 C   0  0  0  0  0  0  0  0  0  0  0  0
    8.3928  -15.8985    5.8755 C   0  0  0  0  0  0  0  0  0  0  0  0
    8.0276  -16.3803    7.2892 C   0  0  0  0  0  0  0  0  0  0  0  0
    4.2869  -15.8128    7.3230 C   0  0  0  0  0  0  0  0  0  0  0  0
    3.2766  -15.3914    8.1866 C   0  0  0  0  0  0  0  0  0  0  0  0
    1.6367  -15.1929    7.6160 Cl  0  0  0  0  0  0  0  0  0  0  0  0
    3.6307  -15.1425    9.4940 C   0  0  0  0  0  0  0  0  0  0  0  0
    4.9542  -13.7836   11.9410 C   0  0  0  0  0  0  0  0  0  0  0  0
    5.2537  -13.5402   13.2640 C   0  0  0  0  0  0  0  0  0  0  0  0
  2  1  1  1
  3  2  1  1
  4  2  1  1
  2  5  1  0
  5 24  2  0
  5  6  1  0
  6  7  2  0
  7  8  1  0
  8  9  1  0
  8 23  2  0
  9 22  1  0
  9 10  2  0
 10 11  1  0
 12 11  1  1
 11 19  2  0
 12 18  1  0
 12 13  1  0
 16 12  1  6
 13 14  1  0
 13 15  2  3
 17 16  1  6
 18 17  1  1
 19 20  1  0
 20 21  1  0
 20 22  2  0
 23 24  1  0
M  CHG  1  15   1
M  END
$$$$
