
     RDKit          3D

 24 26  0  0  0  0  0  0  0  0999 V2000
   12.7339  -12.8549    6.3706 O   0  0  0  0  0  0  0  0  0  0  0  0
   12.6983  -12.6231    7.7526 C   0  0  1  0  0  0  0  0  0  0  0  0
   13.8979  -13.2512    8.4145 C   0  0  0  0  0  0  0  0  0  0  0  0
   12.7710  -11.1266    8.0092 C   0  0  0  0  0  0  0  0  0  0  0  0
   11.4691  -13.2136    8.2869 C   0  0  0  0  0  0  0  0  0  0  0  0
   10.6685  -13.9825    7.4801 C   0  0  0  0  0  0  0  0  0  0  0  0
    9.5160  -14.5301    8.0015 C   0  0  0  0  0  0  0  0  0  0  0  0
    9.1006  -14.3575    9.3024 C   0  0  0  0  0  0  0  0  0  0  0  0
    7.8713  -14.9610    9.8013 C   0  0  0  0  0  0  0  0  0  0  0  0
    7.2798  -14.5709   10.9858 C   0  0  0  0  0  0  0  0  0  0  0  0
    6.1182  -15.1400   11.4600 C   0  0  0  0  0  0  0  0  0  0  0  0
    5.5221  -14.7095   12.7182 C   0  0  1  0  0  0  0  0  0  0  0  0
    4.0620  -14.5085   12.7161 C   0  0  0  0  0  0  0  0  0  0  0  0
    3.5258  -13.3548   12.0292 N   0  0  0  0  0  0  0  0  0  0  0  0
    3.2201  -15.2744   13.2848 N   0  0  0  0  0  4  0  0  0  0  0  0
    5.8886  -15.7158   13.8364 C   0  0  0  0  0  0  0  0  0  0  0  0
    5.8107  -14.4930   14.7642 C   0  0  0  0  0  0  0  0  0  0  0  0
    6.2528  -13.6977   13.5248 C   0  0  0  0  0  0  0  0  0  0  0  0
    5.5307  -16.1358   10.7182 C   0  0  0  0  0  0  0  0  0  0  0  0
    6.0806  -16.5727    9.5137 C   0  0  0  0  0  0  0  0  0  0  0  0
    5.3141  -17.8415    8.5881 Cl  0  0  0  0  0  0  0  0  0  0  0  0
    7.2424  -15.9629    9.0956 C   0  0  0  0  0  0  0  0  0  0  0  0
    9.9078  -13.5853   10.1065 C   0  0  0  0  0  0  0  0  0  0  0  0
   11.0662  -13.0247    9.6133 C   0  0  0  0  0  0  0  0  0  0  0  0
  2  1  1  6
  3  2  1  1
  4  2  1  1
  2  5  1  0
  5 24  2  0
  5  6  1  0
  6  7  2  0
  7  8  1  0
  8  9  1  0
  8 23  2  0
  9 22  1  0
  9 10  2  0
 10 11  1  0
 12 11  1  6
 11 19  2  0
 12 18  1  0
 12 13  1  0
 16 12  1  6
 13 14  1  0
 13 15  2  3
 17 16  1  6
 18 17  1  1
 19 20  1  0
 20 21  1  0
 20 22  2  0
 23 24  1  0
M  CHG  1  15   1
M  END
$$$$
