
     RDKit          3D

 24 26  0  0  0  0  0  0  0  0999 V2000
   11.6064   -6.4768    4.1455 O   0  0  0  0  0  0  0  0  0  0  0  0
   12.8396   -6.4319    3.4807 C   0  0  1  0  0  0  0  0  0  0  0  0
   13.5610   -5.1509    3.8126 C   0  0  0  0  0  0  0  0  0  0  0  0
   13.7095   -7.5804    3.9655 C   0  0  0  0  0  0  0  0  0  0  0  0
   12.5885   -6.5026    2.0395 C   0  0  0  0  0  0  0  0  0  0  0  0
   11.3013   -6.4863    1.5642 C   0  0  0  0  0  0  0  0  0  0  0  0
   11.0854   -6.5531    0.2045 C   0  0  0  0  0  0  0  0  0  0  0  0
   12.0903   -6.6369   -0.7323 C   0  0  0  0  0  0  0  0  0  0  0  0
   11.8042   -6.7047   -2.1600 C   0  0  0  0  0  0  0  0  0  0  0  0
   11.1916   -5.6745   -2.8445 C   0  0  0  0  0  0  0  0  0  0  0  0
   10.9194   -5.7361   -4.1937 C   0  0  0  0  0  0  0  0  0  0  0  0
   10.2656   -4.6331   -4.8860 C   0  0  1  0  0  0  0  0  0  0  0  0
    8.9816   -4.1766   -4.3244 C   0  0  0  0  0  0  0  0  0  0  0  0
    7.8435   -5.0655   -4.3942 N   0  0  0  0  0  0  0  0  0  0  0  0
    8.7857   -3.0429   -3.7810 N   0  0  0  0  0  4  0  0  0  0  0  0
   11.2335   -3.4275   -4.9702 C   0  0  0  0  0  0  0  0  0  0  0  0
   10.4950   -3.1098   -6.2801 C   0  0  0  0  0  0  0  0  0  0  0  0
   10.2903   -4.6309   -6.3718 C   0  0  0  0  0  0  0  0  0  0  0  0
   11.2749   -6.8726   -4.8786 C   0  0  0  0  0  0  0  0  0  0  0  0
   11.8964   -7.9464   -4.2423 C   0  0  0  0  0  0  0  0  0  0  0  0
   12.3390   -9.3817   -5.1359 Cl  0  0  0  0  0  0  0  0  0  0  0  0
   12.1404   -7.8214   -2.8927 C   0  0  0  0  0  0  0  0  0  0  0  0
   13.3791   -6.6528   -0.2495 C   0  0  0  0  0  0  0  0  0  0  0  0
   13.6261   -6.5873    1.1048 C   0  0  0  0  0  0  0  0  0  0  0  0
  2  1  1  1
  3  2  1  1
  4  2  1  1
  2  5  1  0
  5 24  2  0
  5  6  1  0
  6  7  2  0
  7  8  1  0
  8  9  1  0
  8 23  2  0
  9 22  1  0
  9 10  2  0
 10 11  1  0
 12 11  1  1
 11 19  2  0
 12 18  1  0
 12 13  1  0
 16 12  1  6
 13 14  1  0
 13 15  2  3
 17 16  1  6
 18 17  1  1
 19 20  1  0
 20 21  1  0
 20 22  2  0
 23 24  1  0
M  CHG  1  15   1
M  END
$$$$
