
     RDKit          3D

 24 26  0  0  0  0  0  0  0  0999 V2000
    4.3477   -3.4280   -5.6673 O   0  0  0  0  0  0  0  0  0  0  0  0
    4.9300   -3.3459   -4.3949 C   0  0  1  0  0  0  0  0  0  0  0  0
    5.1044   -1.9027   -3.9969 C   0  0  0  0  0  0  0  0  0  0  0  0
    3.9993   -3.9870   -3.3783 C   0  0  0  0  0  0  0  0  0  0  0  0
    6.2345   -4.0102   -4.4419 C   0  0  0  0  0  0  0  0  0  0  0  0
    7.0172   -4.0690   -3.3163 C   0  0  0  0  0  0  0  0  0  0  0  0
    8.2414   -4.6990   -3.3805 C   0  0  0  0  0  0  0  0  0  0  0  0
    8.7471   -5.2869   -4.5177 C   0  0  0  0  0  0  0  0  0  0  0  0
   10.0498   -5.9408   -4.5286 C   0  0  0  0  0  0  0  0  0  0  0  0
   11.1872   -5.3389   -4.0295 C   0  0  0  0  0  0  0  0  0  0  0  0
   12.4198   -5.9544   -4.0391 C   0  0  0  0  0  0  0  0  0  0  0  0
   13.6032   -5.2888   -3.5097 C   0  0  1  0  0  0  0  0  0  0  0  0
   14.2891   -4.3524   -4.4179 C   0  0  0  0  0  0  0  0  0  0  0  0
   15.5242   -4.7746   -5.0396 N   0  0  0  0  0  0  0  0  0  0  0  0
   13.8822   -3.1802   -4.6993 N   0  0  0  0  0  4  0  0  0  0  0  0
   13.2377   -4.5435   -2.2027 C   0  0  0  0  0  0  0  0  0  0  0  0
   14.6917   -4.8353   -1.7992 C   0  0  0  0  0  0  0  0  0  0  0  0
   14.5378   -6.0888   -2.6761 C   0  0  0  0  0  0  0  0  0  0  0  0
   12.5125   -7.2185   -4.5686 C   0  0  0  0  0  0  0  0  0  0  0  0
   11.3991   -7.8781   -5.0876 C   0  0  0  0  0  0  0  0  0  0  0  0
   11.5431   -9.4865   -5.7560 Cl  0  0  0  0  0  0  0  0  0  0  0  0
   10.1967   -7.2080   -5.0480 C   0  0  0  0  0  0  0  0  0  0  0  0
    7.9575   -5.2247   -5.6433 C   0  0  0  0  0  0  0  0  0  0  0  0
    6.7288   -4.6014   -5.6097 C   0  0  0  0  0  0  0  0  0  0  0  0
  2  1  1  6
  3  2  1  1
  4  2  1  1
  2  5  1  0
  5 24  2  0
  5  6  1  0
  6  7  2  0
  7  8  1  0
  8  9  1  0
  8 23  2  0
  9 22  1  0
  9 10  2  0
 10 11  1  0
 12 11  1  6
 11 19  2  0
 12 18  1  0
 12 13  1  0
 16 12  1  6
 13 14  1  0
 13 15  2  3
 17 16  1  6
 18 17  1  1
 19 20  1  0
 20 21  1  0
 20 22  2  0
 23 24  1  0
M  CHG  1  15   1
M  END
$$$$
