
     RDKit          3D

 24 26  0  0  0  0  0  0  0  0999 V2000
   13.4471   -3.3581   -5.7317 O   0  0  0  0  0  0  0  0  0  0  0  0
   13.2677   -4.5931   -5.0932 C   0  0  1  0  0  0  0  0  0  0  0  0
   13.1274   -5.6902   -6.1170 C   0  0  0  0  0  0  0  0  0  0  0  0
   14.4991   -4.9066   -4.2590 C   0  0  0  0  0  0  0  0  0  0  0  0
   12.0547   -4.5169   -4.2760 C   0  0  0  0  0  0  0  0  0  0  0  0
   11.8106   -5.4678   -3.3173 C   0  0  0  0  0  0  0  0  0  0  0  0
   10.6637   -5.3786   -2.5580 C   0  0  0  0  0  0  0  0  0  0  0  0
    9.7242   -4.3820   -2.6949 C   0  0  0  0  0  0  0  0  0  0  0  0
    8.5280   -4.3363   -1.8633 C   0  0  0  0  0  0  0  0  0  0  0  0
    7.9949   -3.1531   -1.3932 C   0  0  0  0  0  0  0  0  0  0  0  0
    6.8647   -3.1071   -0.6066 C   0  0  0  0  0  0  0  0  0  0  0  0
    6.3305   -1.8412   -0.1210 C   0  0  1  0  0  0  0  0  0  0  0  0
    7.0734   -1.1946    0.9756 C   0  0  0  0  0  0  0  0  0  0  0  0
    8.1318   -0.2689    0.6395 N   0  0  0  0  0  0  0  0  0  0  0  0
    6.8626   -1.3925    2.2146 N   0  0  0  0  0  4  0  0  0  0  0  0
    6.2067   -0.8447   -1.2995 C   0  0  0  0  0  0  0  0  0  0  0  0
    5.0204   -0.2753   -0.5054 C   0  0  0  0  0  0  0  0  0  0  0  0
    4.8561   -1.7133    0.0134 C   0  0  0  0  0  0  0  0  0  0  0  0
    6.2490   -4.2912   -0.2811 C   0  0  0  0  0  0  0  0  0  0  0  0
    6.7400   -5.5180   -0.7260 C   0  0  0  0  0  0  0  0  0  0  0  0
    5.9385   -7.0109   -0.2981 Cl  0  0  0  0  0  0  0  0  0  0  0  0
    7.8729   -5.4949   -1.5086 C   0  0  0  0  0  0  0  0  0  0  0  0
    9.9746   -3.4312   -3.6580 C   0  0  0  0  0  0  0  0  0  0  0  0
   11.1128   -3.4942   -4.4326 C   0  0  0  0  0  0  0  0  0  0  0  0
  2  1  1  6
  3  2  1  1
  4  2  1  1
  2  5  1  0
  5 24  2  0
  5  6  1  0
  6  7  2  0
  7  8  1  0
  8  9  1  0
  8 23  2  0
  9 22  1  0
  9 10  2  0
 10 11  1  0
 12 11  1  6
 11 19  2  0
 12 18  1  0
 12 13  1  0
 16 12  1  6
 13 14  1  0
 13 15  2  3
 17 16  1  6
 18 17  1  1
 19 20  1  0
 20 21  1  0
 20 22  2  0
 23 24  1  0
M  CHG  1  15   1
M  END
$$$$
