
     RDKit          3D

 24 26  0  0  0  0  0  0  0  0999 V2000
   10.8569   -7.6397    4.4038 O   0  0  0  0  0  0  0  0  0  0  0  0
   12.1491   -7.7478    3.8716 C   0  0  1  0  0  0  0  0  0  0  0  0
   13.0405   -6.6814    4.4545 C   0  0  0  0  0  0  0  0  0  0  0  0
   12.7381   -9.0937    4.2617 C   0  0  0  0  0  0  0  0  0  0  0  0
   12.0635   -7.5853    2.4185 C   0  0  0  0  0  0  0  0  0  0  0  0
   13.0519   -8.0892    1.6109 C   0  0  0  0  0  0  0  0  0  0  0  0
   12.9531   -7.9267    0.2457 C   0  0  0  0  0  0  0  0  0  0  0  0
   11.9111   -7.2809   -0.3803 C   0  0  0  0  0  0  0  0  0  0  0  0
   11.8575   -7.1382   -1.8299 C   0  0  0  0  0  0  0  0  0  0  0  0
   11.7235   -5.9129   -2.4511 C   0  0  0  0  0  0  0  0  0  0  0  0
   11.6720   -5.7752   -3.8210 C   0  0  0  0  0  0  0  0  0  0  0  0
   11.5237   -4.4671   -4.4460 C   0  0  1  0  0  0  0  0  0  0  0  0
   12.7405   -3.8823   -5.0374 C   0  0  0  0  0  0  0  0  0  0  0  0
   13.4991   -4.6750   -5.9790 N   0  0  0  0  0  0  0  0  0  0  0  0
   13.1912   -2.7211   -4.7781 N   0  0  0  0  0  4  0  0  0  0  0  0
   10.4203   -4.5327   -5.5301 C   0  0  0  0  0  0  0  0  0  0  0  0
   10.1802   -3.0578   -5.1706 C   0  0  0  0  0  0  0  0  0  0  0  0
   10.6607   -3.4651   -3.7681 C   0  0  0  0  0  0  0  0  0  0  0  0
   11.7578   -6.9080   -4.5932 C   0  0  0  0  0  0  0  0  0  0  0  0
   11.8943   -8.1734   -4.0238 C   0  0  0  0  0  0  0  0  0  0  0  0
   12.0015   -9.5997   -5.0281 Cl  0  0  0  0  0  0  0  0  0  0  0  0
   11.9395   -8.2423   -2.6492 C   0  0  0  0  0  0  0  0  0  0  0  0
   10.9230   -6.7778    0.4351 C   0  0  0  0  0  0  0  0  0  0  0  0
   10.9944   -6.9249    1.8035 C   0  0  0  0  0  0  0  0  0  0  0  0
  2  1  1  1
  3  2  1  1
  4  2  1  1
  2  5  1  0
  5 24  2  0
  5  6  1  0
  6  7  2  0
  7  8  1  0
  8  9  1  0
  8 23  2  0
  9 22  1  0
  9 10  2  0
 10 11  1  0
 12 11  1  1
 11 19  2  0
 12 18  1  0
 12 13  1  0
 16 12  1  6
 13 14  1  0
 13 15  2  3
 17 16  1  6
 18 17  1  1
 19 20  1  0
 20 21  1  0
 20 22  2  0
 23 24  1  0
M  CHG  1  15   1
M  END
$$$$
