
     RDKit          3D

 24 26  0  0  0  0  0  0  0  0999 V2000
    3.6159   -3.8827   -4.5969 O   0  0  0  0  0  0  0  0  0  0  0  0
    4.6115   -2.9308   -4.3371 C   0  0  1  0  0  0  0  0  0  0  0  0
    4.5989   -1.8640   -5.4017 C   0  0  0  0  0  0  0  0  0  0  0  0
    4.3166   -2.2503   -3.0102 C   0  0  0  0  0  0  0  0  0  0  0  0
    5.9084   -3.6113   -4.3299 C   0  0  0  0  0  0  0  0  0  0  0  0
    6.4337   -4.1025   -5.4986 C   0  0  0  0  0  0  0  0  0  0  0  0
    7.6558   -4.7394   -5.4714 C   0  0  0  0  0  0  0  0  0  0  0  0
    8.4044   -4.9225   -4.3309 C   0  0  0  0  0  0  0  0  0  0  0  0
    9.6925   -5.6041   -4.3603 C   0  0  0  0  0  0  0  0  0  0  0  0
   10.8074   -5.1136   -3.7110 C   0  0  0  0  0  0  0  0  0  0  0  0
   12.0262   -5.7554   -3.7376 C   0  0  0  0  0  0  0  0  0  0  0  0
   13.1862   -5.2077   -3.0463 C   0  0  1  0  0  0  0  0  0  0  0  0
   13.0757   -3.8117   -2.5866 C   0  0  0  0  0  0  0  0  0  0  0  0
   11.8575   -3.3971   -1.9275 N   0  0  0  0  0  0  0  0  0  0  0  0
   13.9753   -2.9235   -2.7308 N   0  0  0  0  0  4  0  0  0  0  0  0
   13.5419   -6.1076   -1.8376 C   0  0  0  0  0  0  0  0  0  0  0  0
   14.9845   -5.6494   -2.1042 C   0  0  0  0  0  0  0  0  0  0  0  0
   14.5343   -5.5480   -3.5708 C   0  0  0  0  0  0  0  0  0  0  0  0
   12.1281   -6.9308   -4.4412 C   0  0  0  0  0  0  0  0  0  0  0  0
   11.0374   -7.4761   -5.1172 C   0  0  0  0  0  0  0  0  0  0  0  0
   11.1927   -8.9732   -6.0056 Cl  0  0  0  0  0  0  0  0  0  0  0  0
    9.8478   -6.7855   -5.0511 C   0  0  0  0  0  0  0  0  0  0  0  0
    7.8722   -4.4277   -3.1620 C   0  0  0  0  0  0  0  0  0  0  0  0
    6.6524   -3.7863   -3.1580 C   0  0  0  0  0  0  0  0  0  0  0  0
  2  1  1  6
  3  2  1  1
  4  2  1  1
  2  5  1  0
  5 24  2  0
  5  6  1  0
  6  7  2  0
  7  8  1  0
  8  9  1  0
  8 23  2  0
  9 22  1  0
  9 10  2  0
 10 11  1  0
 12 11  1  6
 11 19  2  0
 12 18  1  0
 12 13  1  0
 16 12  1  6
 13 14  1  0
 13 15  2  3
 17 16  1  6
 18 17  1  1
 19 20  1  0
 20 21  1  0
 20 22  2  0
 23 24  1  0
M  CHG  1  15   1
M  END
$$$$
