
     RDKit          3D

 24 26  0  0  0  0  0  0  0  0999 V2000
  -11.2371  -22.4193    6.7146 O   0  0  0  0  0  0  0  0  0  0  0  0
  -11.5676  -21.6287    5.6052 C   0  0  1  0  0  0  0  0  0  0  0  0
  -10.9079  -22.1746    4.3649 C   0  0  0  0  0  0  0  0  0  0  0  0
  -13.0701  -21.6861    5.3819 C   0  0  0  0  0  0  0  0  0  0  0  0
  -11.1008  -20.2636    5.8574 C   0  0  0  0  0  0  0  0  0  0  0  0
  -10.0268  -20.0456    6.6832 C   0  0  0  0  0  0  0  0  0  0  0  0
   -9.6021  -18.7536    6.9076 C   0  0  0  0  0  0  0  0  0  0  0  0
  -10.1908  -17.6410    6.3507 C   0  0  0  0  0  0  0  0  0  0  0  0
   -9.6993  -16.2961    6.6228 C   0  0  0  0  0  0  0  0  0  0  0  0
   -8.3548  -15.9837    6.6290 C   0  0  0  0  0  0  0  0  0  0  0  0
   -7.8874  -14.7135    6.8865 C   0  0  0  0  0  0  0  0  0  0  0  0
   -6.4605  -14.4177    6.8916 C   0  0  1  0  0  0  0  0  0  0  0  0
   -6.0647  -13.1112    7.4474 C   0  0  0  0  0  0  0  0  0  0  0  0
   -6.3586  -12.8347    8.8357 N   0  0  0  0  0  0  0  0  0  0  0  0
   -5.4829  -12.1874    6.7940 N   0  0  0  0  0  4  0  0  0  0  0  0
   -5.7021  -15.5356    7.6482 C   0  0  0  0  0  0  0  0  0  0  0  0
   -4.5480  -15.2035    6.6891 C   0  0  0  0  0  0  0  0  0  0  0  0
   -5.6624  -14.8162    5.7032 C   0  0  0  0  0  0  0  0  0  0  0  0
   -8.8029  -13.7230    7.1469 C   0  0  0  0  0  0  0  0  0  0  0  0
  -10.1738  -13.9769    7.1546 C   0  0  0  0  0  0  0  0  0  0  0  0
  -11.3187  -12.6994    7.4889 Cl  0  0  0  0  0  0  0  0  0  0  0  0
  -10.5753  -15.2673    6.8896 C   0  0  0  0  0  0  0  0  0  0  0  0
  -11.2675  -17.8661    5.5234 C   0  0  0  0  0  0  0  0  0  0  0  0
  -11.7149  -19.1468    5.2801 C   0  0  0  0  0  0  0  0  0  0  0  0
  2  1  1  1
  3  2  1  1
  4  2  1  1
  2  5  1  0
  5 24  2  0
  5  6  1  0
  6  7  2  0
  7  8  1  0
  8  9  1  0
  8 23  2  0
  9 22  1  0
  9 10  2  0
 10 11  1  0
 12 11  1  6
 11 19  2  0
 12 18  1  0
 12 13  1  0
 16 12  1  6
 13 14  1  0
 13 15  2  3
 17 16  1  6
 18 17  1  1
 19 20  1  0
 20 21  1  0
 20 22  2  0
 23 24  1  0
M  CHG  1  15   1
M  END
$$$$
