
     RDKit          3D

 24 26  0  0  0  0  0  0  0  0999 V2000
    3.8413  -14.5136    7.7073 O   0  0  0  0  0  0  0  0  0  0  0  0
    3.7588  -15.6984    8.4519 C   0  0  1  0  0  0  0  0  0  0  0  0
    2.3342  -16.1888    8.4894 C   0  0  0  0  0  0  0  0  0  0  0  0
    4.5903  -16.7738    7.7716 C   0  0  0  0  0  0  0  0  0  0  0  0
    4.2256  -15.4207    9.8121 C   0  0  0  0  0  0  0  0  0  0  0  0
    5.3245  -14.6238   10.0128 C   0  0  0  0  0  0  0  0  0  0  0  0
    5.7479  -14.3737   11.3004 C   0  0  0  0  0  0  0  0  0  0  0  0
    5.1344  -14.8768   12.4251 C   0  0  0  0  0  0  0  0  0  0  0  0
    5.6255  -14.5791   13.7647 C   0  0  0  0  0  0  0  0  0  0  0  0
    6.9445  -14.7589   14.1293 C   0  0  0  0  0  0  0  0  0  0  0  0
    7.4113  -14.4789   15.3950 C   0  0  0  0  0  0  0  0  0  0  0  0
    8.8094  -14.6857   15.7500 C   0  0  1  0  0  0  0  0  0  0  0  0
    9.2283  -16.0808   15.9753 C   0  0  0  0  0  0  0  0  0  0  0  0
    8.6402  -16.8078   17.0779 N   0  0  0  0  0  0  0  0  0  0  0  0
   10.0849  -16.7069   15.2732 N   0  0  0  0  0  4  0  0  0  0  0  0
    9.7181  -14.0579   14.6649 C   0  0  0  0  0  0  0  0  0  0  0  0
   10.7019  -13.8316   15.8237 C   0  0  0  0  0  0  0  0  0  0  0  0
    9.4381  -13.7245   16.6928 C   0  0  0  0  0  0  0  0  0  0  0  0
    6.5216  -14.0017   16.3265 C   0  0  0  0  0  0  0  0  0  0  0  0
    5.1770  -13.7992   16.0180 C   0  0  0  0  0  0  0  0  0  0  0  0
    4.0647  -13.1910   17.2210 Cl  0  0  0  0  0  0  0  0  0  0  0  0
    4.7747  -14.0984   14.7354 C   0  0  0  0  0  0  0  0  0  0  0  0
    4.0328  -15.6754   12.2173 C   0  0  0  0  0  0  0  0  0  0  0  0
    3.5859  -15.9433   10.9414 C   0  0  0  0  0  0  0  0  0  0  0  0
  2  1  1  6
  3  2  1  1
  4  2  1  1
  2  5  1  0
  5 24  2  0
  5  6  1  0
  6  7  2  0
  7  8  1  0
  8  9  1  0
  8 23  2  0
  9 22  1  0
  9 10  2  0
 10 11  1  0
 12 11  1  6
 11 19  2  0
 12 18  1  0
 12 13  1  0
 16 12  1  6
 13 14  1  0
 13 15  2  3
 17 16  1  6
 18 17  1  1
 19 20  1  0
 20 21  1  0
 20 22  2  0
 23 24  1  0
M  CHG  1  15   1
M  END
$$$$
