
     RDKit          3D

 24 26  0  0  0  0  0  0  0  0999 V2000
    4.6842  -12.3354   14.9784 O   0  0  0  0  0  0  0  0  0  0  0  0
    4.6599  -13.7302   15.1156 C   0  0  1  0  0  0  0  0  0  0  0  0
    5.7146  -14.1729   16.0970 C   0  0  0  0  0  0  0  0  0  0  0  0
    3.3122  -14.1526   15.6775 C   0  0  0  0  0  0  0  0  0  0  0  0
    4.9198  -14.3264   13.8033 C   0  0  0  0  0  0  0  0  0  0  0  0
    4.9510  -15.6910   13.6619 C   0  0  0  0  0  0  0  0  0  0  0  0
    5.1965  -16.2330   12.4186 C   0  0  0  0  0  0  0  0  0  0  0  0
    5.4177  -15.4877   11.2828 C   0  0  0  0  0  0  0  0  0  0  0  0
    5.6725  -16.1145    9.9918 C   0  0  0  0  0  0  0  0  0  0  0  0
    6.9361  -16.1971    9.4426 C   0  0  0  0  0  0  0  0  0  0  0  0
    7.1797  -16.7885    8.2223 C   0  0  0  0  0  0  0  0  0  0  0  0
    8.5254  -16.8540    7.6672 C   0  0  1  0  0  0  0  0  0  0  0  0
    8.6547  -16.5653    6.2276 C   0  0  0  0  0  0  0  0  0  0  0  0
    8.9858  -15.2178    5.8215 N   0  0  0  0  0  0  0  0  0  0  0  0
    8.4885  -17.4158    5.2960 N   0  0  0  0  0  4  0  0  0  0  0  0
    9.4583  -15.9025    8.4557 C   0  0  0  0  0  0  0  0  0  0  0  0
   10.5560  -16.9184    8.1020 C   0  0  0  0  0  0  0  0  0  0  0  0
    9.4164  -17.9502    8.1283 C   0  0  0  0  0  0  0  0  0  0  0  0
    6.1165  -17.3149    7.5299 C   0  0  0  0  0  0  0  0  0  0  0  0
    4.8171  -17.2621    8.0327 C   0  0  0  0  0  0  0  0  0  0  0  0
    3.4810  -17.9393    7.1324 Cl  0  0  0  0  0  0  0  0  0  0  0  0
    4.6414  -16.6577    9.2576 C   0  0  0  0  0  0  0  0  0  0  0  0
    5.3851  -14.1197   11.4310 C   0  0  0  0  0  0  0  0  0  0  0  0
    5.1420  -13.5488   12.6616 C   0  0  0  0  0  0  0  0  0  0  0  0
  2  1  1  6
  3  2  1  1
  4  2  1  1
  2  5  1  0
  5 24  2  0
  5  6  1  0
  6  7  2  0
  7  8  1  0
  8  9  1  0
  8 23  2  0
  9 22  1  0
  9 10  2  0
 10 11  1  0
 12 11  1  1
 11 19  2  0
 12 18  1  0
 12 13  1  0
 16 12  1  6
 13 14  1  0
 13 15  2  3
 17 16  1  6
 18 17  1  1
 19 20  1  0
 20 21  1  0
 20 22  2  0
 23 24  1  0
M  CHG  1  15   1
M  END
$$$$
