
     RDKit          3D

 22 24  0  0  0  0  0  0  0  0999 V2000
   11.7767   42.0486   81.7444 N   0  0  0  0  0  4  0  0  0  0  0  0
   12.3588   40.6917   81.5224 C   0  0  0  0  0  0  0  0  0  0  0  0
   13.2069   40.8042   80.3006 C   0  0  0  0  0  0  0  0  0  0  0  0
   14.3257   41.6172   80.3067 C   0  0  0  0  0  0  0  0  0  0  0  0
   15.1349   41.7395   79.1767 C   0  0  0  0  0  0  0  0  0  0  0  0
   14.8340   41.0489   78.0256 C   0  0  0  0  0  0  0  0  0  0  0  0
   15.6569   41.1477   76.8133 C   0  0  0  0  0  0  0  0  0  0  0  0
   17.0353   41.2364   76.8851 C   0  0  0  0  0  0  0  0  0  0  0  0
   17.8197   41.3296   75.7649 C   0  0  0  0  0  0  0  0  0  0  0  0
   19.2857   41.4169   75.8120 C   0  0  1  0  0  0  0  0  0  0  0  0
   19.8896   42.7263   76.0321 C   0  0  0  0  0  0  0  0  0  0  0  0
   19.5058   43.8096   75.1445 N   0  0  0  0  0  0  0  0  0  0  0  0
   20.7221   42.9373   76.9698 N   0  0  0  0  0  4  0  0  0  0  0  0
   19.9690   40.3046   76.5740 C   0  0  0  0  0  0  0  0  0  0  0  0
   21.0981   40.4635   75.5427 C   0  0  0  0  0  0  0  0  0  0  0  0
   19.9519   40.7695   74.5599 C   0  0  0  0  0  0  0  0  0  0  0  0
   17.1771   41.3314   74.5540 C   0  0  0  0  0  0  0  0  0  0  0  0
   15.7971   41.2438   74.4483 C   0  0  0  0  0  0  0  0  0  0  0  0
   14.9959   41.2478   72.8918 Cl  0  0  0  0  0  0  0  0  0  0  0  0
   15.0569   41.1533   75.5772 C   0  0  0  0  0  0  0  0  0  0  0  0
   13.7205   40.2423   78.0259 C   0  0  0  0  0  0  0  0  0  0  0  0
   12.9066   40.1139   79.1492 C   0  0  0  0  0  0  0  0  0  0  0  0
  1  2  1  1
  2  3  1  1
  3 22  2  0
  3  4  1  0
  4  5  2  0
  5  6  1  0
  6  7  1  0
  6 21  2  0
  7 20  1  0
  7  8  2  0
  8  9  1  0
 10  9  1  6
  9 17  2  0
 10 16  1  0
 10 11  1  0
 14 10  1  6
 11 12  1  0
 11 13  2  3
 15 14  1  6
 16 15  1  1
 17 18  1  0
 18 19  1  0
 18 20  2  0
 21 22  1  0
M  CHG  2   1   1  13   1
M  END
$$$$
