
     RDKit          3D

 22 24  0  0  0  0  0  0  0  0999 V2000
  249.8723   58.9128 -161.6938 N   0  0  0  0  0  4  0  0  0  0  0  0
  249.2866   59.8173 -160.6604 C   0  0  0  0  0  0  0  0  0  0  0  0
  250.2173   60.9783 -160.5568 C   0  0  0  0  0  0  0  0  0  0  0  0
  251.0471   61.1045 -159.4575 C   0  0  0  0  0  0  0  0  0  0  0  0
  251.9262   62.1812 -159.3370 C   0  0  0  0  0  0  0  0  0  0  0  0
  251.9857   63.1457 -160.3161 C   0  0  0  0  0  0  0  0  0  0  0  0
  252.8950   64.2957 -160.2308 C   0  0  0  0  0  0  0  0  0  0  0  0
  252.9580   65.0798 -159.0930 C   0  0  0  0  0  0  0  0  0  0  0  0
  253.8000   66.1570 -158.9950 C   0  0  0  0  0  0  0  0  0  0  0  0
  253.8928   67.0015 -157.7962 C   0  0  1  0  0  0  0  0  0  0  0  0
  252.7604   67.8618 -157.4721 C   0  0  0  0  0  0  0  0  0  0  0  0
  251.8357   67.4109 -156.4471 N   0  0  0  0  0  0  0  0  0  0  0  0
  252.5732   68.9788 -158.0504 N   0  0  0  0  0  4  0  0  0  0  0  0
  254.5034   66.3312 -156.5868 C   0  0  0  0  0  0  0  0  0  0  0  0
  255.0688   67.7227 -156.2591 C   0  0  0  0  0  0  0  0  0  0  0  0
  255.1893   67.8672 -157.7881 C   0  0  0  0  0  0  0  0  0  0  0  0
  254.5883   66.4312 -160.0825 C   0  0  0  0  0  0  0  0  0  0  0  0
  254.5487   65.6646 -161.2375 C   0  0  0  0  0  0  0  0  0  0  0  0
  255.5640   66.0319 -162.6156 Cl  0  0  0  0  0  0  0  0  0  0  0  0
  253.7042   64.6092 -161.2960 C   0  0  0  0  0  0  0  0  0  0  0  0
  251.1582   63.0146 -161.4063 C   0  0  0  0  0  0  0  0  0  0  0  0
  250.2774   61.9431 -161.5354 C   0  0  0  0  0  0  0  0  0  0  0  0
  1  2  1  1
  2  3  1  1
  3 22  2  0
  3  4  1  0
  4  5  2  0
  5  6  1  0
  6  7  1  0
  6 21  2  0
  7 20  1  0
  7  8  2  0
  8  9  1  0
 10  9  1  6
  9 17  2  0
 10 16  1  0
 10 11  1  0
 14 10  1  6
 11 12  1  0
 11 13  2  3
 15 14  1  6
 16 15  1  1
 17 18  1  0
 18 19  1  0
 18 20  2  0
 21 22  1  0
M  CHG  2   1   1  13   1
M  END
$$$$
