
     RDKit          3D

 22 24  0  0  0  0  0  0  0  0999 V2000
   40.8410  -61.7070  113.8823 N   0  0  0  0  0  4  0  0  0  0  0  0
   40.9849  -62.8842  114.7894 C   0  0  0  0  0  0  0  0  0  0  0  0
   40.2947  -64.0158  114.1053 C   0  0  0  0  0  0  0  0  0  0  0  0
   38.9204  -64.1437  114.1938 C   0  0  0  0  0  0  0  0  0  0  0  0
   38.2515  -65.1934  113.5633 C   0  0  0  0  0  0  0  0  0  0  0  0
   38.9505  -66.1286  112.8358 C   0  0  0  0  0  0  0  0  0  0  0  0
   38.2882  -67.2495  112.1562 C   0  0  0  0  0  0  0  0  0  0  0  0
   38.9390  -68.4529  111.9531 C   0  0  0  0  0  0  0  0  0  0  0  0
   38.3375  -69.5099  111.3208 C   0  0  0  0  0  0  0  0  0  0  0  0
   39.0023  -70.8014  111.0991 C   0  0  1  0  0  0  0  0  0  0  0  0
   40.0052  -70.8859  110.0434 C   0  0  0  0  0  0  0  0  0  0  0  0
   39.5606  -70.7313  108.6696 N   0  0  0  0  0  0  0  0  0  0  0  0
   41.2364  -71.0804  110.2952 N   0  0  0  0  0  4  0  0  0  0  0  0
   39.3892  -71.5462  112.3562 C   0  0  0  0  0  0  0  0  0  0  0  0
   39.0884  -72.8165  111.5441 C   0  0  0  0  0  0  0  0  0  0  0  0
   37.9791  -71.9612  110.9028 C   0  0  0  0  0  0  0  0  0  0  0  0
   37.0485  -69.3263  110.8917 C   0  0  0  0  0  0  0  0  0  0  0  0
   36.3687  -68.1323  111.0800 C   0  0  0  0  0  0  0  0  0  0  0  0
   34.7225  -67.9182  110.5241 Cl  0  0  0  0  0  0  0  0  0  0  0  0
   36.9965  -67.1118  111.7085 C   0  0  0  0  0  0  0  0  0  0  0  0
   40.3164  -65.9958  112.7516 C   0  0  0  0  0  0  0  0  0  0  0  0
   40.9930  -64.9513  113.3777 C   0  0  0  0  0  0  0  0  0  0  0  0
  1  2  1  1
  2  3  1  1
  3 22  2  0
  3  4  1  0
  4  5  2  0
  5  6  1  0
  6  7  1  0
  6 21  2  0
  7 20  1  0
  7  8  2  0
  8  9  1  0
 10  9  1  1
  9 17  2  0
 10 16  1  0
 10 11  1  0
 14 10  1  6
 11 12  1  0
 11 13  2  3
 15 14  1  6
 16 15  1  1
 17 18  1  0
 18 19  1  0
 18 20  2  0
 21 22  1  0
M  CHG  2   1   1  13   1
M  END
$$$$
