
     RDKit          3D

 22 24  0  0  0  0  0  0  0  0999 V2000
   18.4846   42.0825   67.5848 N   0  0  0  0  0  4  0  0  0  0  0  0
   19.1428   41.0714   68.4643 C   0  0  0  0  0  0  0  0  0  0  0  0
   20.5085   40.8650   67.9012 C   0  0  0  0  0  0  0  0  0  0  0  0
   20.6725   40.6439   66.5459 C   0  0  0  0  0  0  0  0  0  0  0  0
   21.9394   40.4479   65.9949 C   0  0  0  0  0  0  0  0  0  0  0  0
   23.0586   40.4709   66.7945 C   0  0  0  0  0  0  0  0  0  0  0  0
   24.4107   40.2692   66.2580 C   0  0  0  0  0  0  0  0  0  0  0  0
   25.4916   40.0556   67.0942 C   0  0  0  0  0  0  0  0  0  0  0  0
   26.7606   39.8658   66.6121 C   0  0  0  0  0  0  0  0  0  0  0  0
   27.9247   39.6290   67.4768 C   0  0  1  0  0  0  0  0  0  0  0  0
   29.0554   40.5447   67.3733 C   0  0  0  0  0  0  0  0  0  0  0  0
   29.0975   41.6779   68.2803 N   0  0  0  0  0  0  0  0  0  0  0  0
   29.9899   40.3714   66.5284 N   0  0  0  0  0  4  0  0  0  0  0  0
   27.5963   39.2385   68.8996 C   0  0  0  0  0  0  0  0  0  0  0  0
   28.8701   38.3811   68.8240 C   0  0  0  0  0  0  0  0  0  0  0  0
   28.4581   38.1691   67.3548 C   0  0  0  0  0  0  0  0  0  0  0  0
   26.9197   39.8959   65.2508 C   0  0  0  0  0  0  0  0  0  0  0  0
   25.8567   40.1078   64.3858 C   0  0  0  0  0  0  0  0  0  0  0  0
   26.0814   40.1426   62.6500 Cl  0  0  0  0  0  0  0  0  0  0  0  0
   24.6187   40.2912   64.9000 C   0  0  0  0  0  0  0  0  0  0  0  0
   22.8889   40.6912   68.1410 C   0  0  0  0  0  0  0  0  0  0  0  0
   21.6281   40.8879   68.7001 C   0  0  0  0  0  0  0  0  0  0  0  0
  1  2  1  1
  2  3  1  1
  3 22  2  0
  3  4  1  0
  4  5  2  0
  5  6  1  0
  6  7  1  0
  6 21  2  0
  7 20  1  0
  7  8  2  0
  8  9  1  0
 10  9  1  6
  9 17  2  0
 10 16  1  0
 10 11  1  0
 14 10  1  6
 11 12  1  0
 11 13  2  3
 15 14  1  6
 16 15  1  1
 17 18  1  0
 18 19  1  0
 18 20  2  0
 21 22  1  0
M  CHG  2   1   1  13   1
M  END
$$$$
