
     RDKit          3D

 22 24  0  0  0  0  0  0  0  0999 V2000
   33.6876   18.1395   56.8546 N   0  0  0  0  0  4  0  0  0  0  0  0
   34.6163   19.3084   56.8366 C   0  0  0  0  0  0  0  0  0  0  0  0
   34.0937   20.2313   55.7878 C   0  0  0  0  0  0  0  0  0  0  0  0
   32.7960   20.7034   55.8650 C   0  0  0  0  0  0  0  0  0  0  0  0
   32.2837   21.5673   54.8964 C   0  0  0  0  0  0  0  0  0  0  0  0
   33.0647   21.9696   53.8378 C   0  0  0  0  0  0  0  0  0  0  0  0
   32.5672   22.8769   52.7958 C   0  0  0  0  0  0  0  0  0  0  0  0
   33.0842   22.8510   51.5131 C   0  0  0  0  0  0  0  0  0  0  0  0
   32.6329   23.6901   50.5276 C   0  0  0  0  0  0  0  0  0  0  0  0
   33.1583   23.6783   49.1554 C   0  0  1  0  0  0  0  0  0  0  0  0
   33.6558   24.9316   48.5992 C   0  0  0  0  0  0  0  0  0  0  0  0
   34.8248   25.5325   49.2164 N   0  0  0  0  0  0  0  0  0  0  0  0
   33.1039   25.4939   47.6010 N   0  0  0  0  0  4  0  0  0  0  0  0
   34.0182   22.4844   48.8095 C   0  0  0  0  0  0  0  0  0  0  0  0
   33.4224   22.6238   47.3992 C   0  0  0  0  0  0  0  0  0  0  0  0
   32.1462   23.0566   48.1456 C   0  0  0  0  0  0  0  0  0  0  0  0
   31.6359   24.5678   50.8664 C   0  0  0  0  0  0  0  0  0  0  0  0
   31.0968   24.6187   52.1430 C   0  0  0  0  0  0  0  0  0  0  0  0
   29.8237   25.7475   52.5552 Cl  0  0  0  0  0  0  0  0  0  0  0  0
   31.5687   23.7741   53.0888 C   0  0  0  0  0  0  0  0  0  0  0  0
   34.3539   21.4968   53.7668 C   0  0  0  0  0  0  0  0  0  0  0  0
   34.8741   20.6340   54.7290 C   0  0  0  0  0  0  0  0  0  0  0  0
  1  2  1  1
  2  3  1  1
  3 22  2  0
  3  4  1  0
  4  5  2  0
  5  6  1  0
  6  7  1  0
  6 21  2  0
  7 20  1  0
  7  8  2  0
  8  9  1  0
 10  9  1  1
  9 17  2  0
 10 16  1  0
 10 11  1  0
 14 10  1  6
 11 12  1  0
 11 13  2  3
 15 14  1  6
 16 15  1  1
 17 18  1  0
 18 19  1  0
 18 20  2  0
 21 22  1  0
M  CHG  2   1   1  13   1
M  END
$$$$
