
     RDKit          3D

 22 24  0  0  0  0  0  0  0  0999 V2000
   31.0560   45.2412   55.6055 N   0  0  0  0  0  4  0  0  0  0  0  0
   30.8391   43.8281   55.1752 C   0  0  0  0  0  0  0  0  0  0  0  0
   30.6322   43.8762   53.6988 C   0  0  0  0  0  0  0  0  0  0  0  0
   30.4958   45.0942   53.0580 C   0  0  0  0  0  0  0  0  0  0  0  0
   30.3011   45.1658   51.6783 C   0  0  0  0  0  0  0  0  0  0  0  0
   30.2406   44.0181   50.9222 C   0  0  0  0  0  0  0  0  0  0  0  0
   30.0370   44.0460   49.4681 C   0  0  0  0  0  0  0  0  0  0  0  0
   30.0735   45.2334   48.7596 C   0  0  0  0  0  0  0  0  0  0  0  0
   29.8855   45.2793   47.4026 C   0  0  0  0  0  0  0  0  0  0  0  0
   29.9271   46.5249   46.6244 C   0  0  1  0  0  0  0  0  0  0  0  0
   28.7096   46.9511   45.9436 C   0  0  0  0  0  0  0  0  0  0  0  0
   27.4368   46.5194   46.4936 N   0  0  0  0  0  0  0  0  0  0  0  0
   28.7376   47.6837   44.9046 N   0  0  0  0  0  4  0  0  0  0  0  0
   30.6802   47.6619   47.2762 C   0  0  0  0  0  0  0  0  0  0  0  0
   31.0745   48.0544   45.8430 C   0  0  0  0  0  0  0  0  0  0  0  0
   31.0980   46.5341   45.5951 C   0  0  0  0  0  0  0  0  0  0  0  0
   29.6569   44.0871   46.7657 C   0  0  0  0  0  0  0  0  0  0  0  0
   29.6142   42.8801   47.4473 C   0  0  0  0  0  0  0  0  0  0  0  0
   29.3206   41.3682   46.6148 Cl  0  0  0  0  0  0  0  0  0  0  0  0
   29.8044   42.8757   48.7868 C   0  0  0  0  0  0  0  0  0  0  0  0
   30.3770   42.8104   51.5651 C   0  0  0  0  0  0  0  0  0  0  0  0
   30.5716   42.7290   52.9422 C   0  0  0  0  0  0  0  0  0  0  0  0
  1  2  1  1
  2  3  1  1
  3 22  2  0
  3  4  1  0
  4  5  2  0
  5  6  1  0
  6  7  1  0
  6 21  2  0
  7 20  1  0
  7  8  2  0
  8  9  1  0
 10  9  1  1
  9 17  2  0
 10 16  1  0
 10 11  1  0
 14 10  1  6
 11 12  1  0
 11 13  2  3
 15 14  1  6
 16 15  1  1
 17 18  1  0
 18 19  1  0
 18 20  2  0
 21 22  1  0
M  CHG  2   1   1  13   1
M  END
$$$$
