
     RDKit          3D

 22 24  0  0  0  0  0  0  0  0999 V2000
   17.5884   24.1005   74.1457 N   0  0  0  0  0  4  0  0  0  0  0  0
   18.7315   24.9207   73.6462 C   0  0  0  0  0  0  0  0  0  0  0  0
   18.1890   25.7398   72.5239 C   0  0  0  0  0  0  0  0  0  0  0  0
   18.0452   27.1074   72.6713 C   0  0  0  0  0  0  0  0  0  0  0  0
   17.5399   27.8954   71.6366 C   0  0  0  0  0  0  0  0  0  0  0  0
   17.1721   27.3237   70.4406 C   0  0  0  0  0  0  0  0  0  0  0  0
   16.6356   28.1140   69.3251 C   0  0  0  0  0  0  0  0  0  0  0  0
   17.1077   27.9501   68.0353 C   0  0  0  0  0  0  0  0  0  0  0  0
   16.6197   28.6785   66.9818 C   0  0  0  0  0  0  0  0  0  0  0  0
   17.0971   28.5191   65.6013 C   0  0  1  0  0  0  0  0  0  0  0  0
   17.2019   27.1678   65.0620 C   0  0  0  0  0  0  0  0  0  0  0  0
   18.4103   26.4143   65.3465 N   0  0  0  0  0  0  0  0  0  0  0  0
   16.2739   26.6433   64.3687 N   0  0  0  0  0  4  0  0  0  0  0  0
   16.5425   29.5190   64.6128 C   0  0  0  0  0  0  0  0  0  0  0  0
   17.9133   29.4090   63.9256 C   0  0  0  0  0  0  0  0  0  0  0  0
   18.4511   29.2536   65.3609 C   0  0  0  0  0  0  0  0  0  0  0  0
   15.6322   29.5881   67.2589 C   0  0  0  0  0  0  0  0  0  0  0  0
   15.1376   29.7761   68.5407 C   0  0  0  0  0  0  0  0  0  0  0  0
   13.8759   30.9433   68.8734 Cl  0  0  0  0  0  0  0  0  0  0  0  0
   15.6450   29.0380   69.5547 C   0  0  0  0  0  0  0  0  0  0  0  0
   17.3175   25.9637   70.3004 C   0  0  0  0  0  0  0  0  0  0  0  0
   17.8210   25.1688   71.3277 C   0  0  0  0  0  0  0  0  0  0  0  0
  1  2  1  1
  2  3  1  1
  3 22  2  0
  3  4  1  0
  4  5  2  0
  5  6  1  0
  6  7  1  0
  6 21  2  0
  7 20  1  0
  7  8  2  0
  8  9  1  0
 10  9  1  1
  9 17  2  0
 10 16  1  0
 10 11  1  0
 14 10  1  6
 11 12  1  0
 11 13  2  3
 15 14  1  6
 16 15  1  1
 17 18  1  0
 18 19  1  0
 18 20  2  0
 21 22  1  0
M  CHG  2   1   1  13   1
M  END
$$$$
