
     RDKit          3D

 22 24  0  0  0  0  0  0  0  0999 V2000
   28.0604   50.2276   36.2761 N   0  0  0  0  0  4  0  0  0  0  0  0
   27.2225   50.2578   37.5115 C   0  0  0  0  0  0  0  0  0  0  0  0
   27.0774   48.8376   37.9435 C   0  0  0  0  0  0  0  0  0  0  0  0
   26.8703   47.8453   37.0027 C   0  0  0  0  0  0  0  0  0  0  0  0
   26.7313   46.5096   37.3814 C   0  0  0  0  0  0  0  0  0  0  0  0
   26.7980   46.1504   38.7077 C   0  0  0  0  0  0  0  0  0  0  0  0
   26.6569   44.7577   39.1516 C   0  0  0  0  0  0  0  0  0  0  0  0
   25.8042   43.8803   38.5066 C   0  0  0  0  0  0  0  0  0  0  0  0
   25.6590   42.5773   38.9065 C   0  0  0  0  0  0  0  0  0  0  0  0
   24.7670   41.6222   38.2349 C   0  0  1  0  0  0  0  0  0  0  0  0
   23.8581   40.8338   39.0595 C   0  0  0  0  0  0  0  0  0  0  0  0
   22.8337   41.5401   39.8081 N   0  0  0  0  0  0  0  0  0  0  0  0
   23.9369   39.5665   39.1296 N   0  0  0  0  0  4  0  0  0  0  0  0
   24.1350   42.1260   36.9576 C   0  0  0  0  0  0  0  0  0  0  0  0
   24.2382   40.6680   36.4810 C   0  0  0  0  0  0  0  0  0  0  0  0
   25.5467   40.6539   37.2940 C   0  0  0  0  0  0  0  0  0  0  0  0
   26.4016   42.1713   39.9850 C   0  0  0  0  0  0  0  0  0  0  0  0
   27.2651   43.0263   40.6531 C   0  0  0  0  0  0  0  0  0  0  0  0
   28.2046   42.4878   42.0286 Cl  0  0  0  0  0  0  0  0  0  0  0  0
   27.3810   44.3056   40.2283 C   0  0  0  0  0  0  0  0  0  0  0  0
   27.0041   47.1415   39.6381 C   0  0  0  0  0  0  0  0  0  0  0  0
   27.1440   48.4777   39.2695 C   0  0  0  0  0  0  0  0  0  0  0  0
  1  2  1  1
  2  3  1  1
  3 22  2  0
  3  4  1  0
  4  5  2  0
  5  6  1  0
  6  7  1  0
  6 21  2  0
  7 20  1  0
  7  8  2  0
  8  9  1  0
 10  9  1  1
  9 17  2  0
 10 16  1  0
 10 11  1  0
 14 10  1  6
 11 12  1  0
 11 13  2  3
 15 14  1  6
 16 15  1  1
 17 18  1  0
 18 19  1  0
 18 20  2  0
 21 22  1  0
M  CHG  2   1   1  13   1
M  END
$$$$
