
     RDKit          3D

 22 24  0  0  0  0  0  0  0  0999 V2000
    8.2274  -42.5330   29.8361 N   0  0  0  0  0  4  0  0  0  0  0  0
    8.6589  -41.4710   30.7927 C   0  0  0  0  0  0  0  0  0  0  0  0
   10.1119  -41.2531   30.5355 C   0  0  0  0  0  0  0  0  0  0  0  0
   10.9031  -40.6529   31.4981 C   0  0  0  0  0  0  0  0  0  0  0  0
   12.2646  -40.4378   31.2815 C   0  0  0  0  0  0  0  0  0  0  0  0
   12.8513  -40.8212   30.0977 C   0  0  0  0  0  0  0  0  0  0  0  0
   14.2797  -40.6142   29.8267 C   0  0  0  0  0  0  0  0  0  0  0  0
   14.8518  -41.0211   28.6348 C   0  0  0  0  0  0  0  0  0  0  0  0
   16.1828  -40.8368   28.3641 C   0  0  0  0  0  0  0  0  0  0  0  0
   16.8143  -41.2516   27.1039 C   0  0  1  0  0  0  0  0  0  0  0  0
   18.0271  -40.5594   26.6824 C   0  0  0  0  0  0  0  0  0  0  0  0
   17.9396  -39.1339   26.4195 N   0  0  0  0  0  0  0  0  0  0  0  0
   19.1383  -41.1633   26.5502 N   0  0  0  0  0  4  0  0  0  0  0  0
   16.8643  -42.7448   26.8742 C   0  0  0  0  0  0  0  0  0  0  0  0
   16.6937  -42.3938   25.3872 C   0  0  0  0  0  0  0  0  0  0  0  0
   15.8060  -41.2506   25.9149 C   0  0  0  0  0  0  0  0  0  0  0  0
   16.9357  -40.2254   29.3329 C   0  0  0  0  0  0  0  0  0  0  0  0
   16.3924  -39.8061   30.5379 C   0  0  0  0  0  0  0  0  0  0  0  0
   17.3716  -39.0271   31.7623 Cl  0  0  0  0  0  0  0  0  0  0  0  0
   15.0742  -40.0057   30.7682 C   0  0  0  0  0  0  0  0  0  0  0  0
   12.0594  -41.4173   29.1448 C   0  0  0  0  0  0  0  0  0  0  0  0
   10.6993  -41.6361   29.3520 C   0  0  0  0  0  0  0  0  0  0  0  0
  1  2  1  1
  2  3  1  1
  3 22  2  0
  3  4  1  0
  4  5  2  0
  5  6  1  0
  6  7  1  0
  6 21  2  0
  7 20  1  0
  7  8  2  0
  8  9  1  0
 10  9  1  1
  9 17  2  0
 10 16  1  0
 10 11  1  0
 14 10  1  6
 11 12  1  0
 11 13  2  3
 15 14  1  6
 16 15  1  1
 17 18  1  0
 18 19  1  0
 18 20  2  0
 21 22  1  0
M  CHG  2   1   1  13   1
M  END
$$$$
