
     RDKit          3D

 22 24  0  0  0  0  0  0  0  0999 V2000
   10.0515   39.6006   81.4885 N   0  0  0  0  0  4  0  0  0  0  0  0
    9.9743   40.8137   80.6215 C   0  0  0  0  0  0  0  0  0  0  0  0
   11.1805   40.7688   79.7451 C   0  0  0  0  0  0  0  0  0  0  0  0
   12.4447   40.7949   80.3053 C   0  0  0  0  0  0  0  0  0  0  0  0
   13.5885   40.7542   79.5072 C   0  0  0  0  0  0  0  0  0  0  0  0
   13.4808   40.6867   78.1374 C   0  0  0  0  0  0  0  0  0  0  0  0
   14.6568   40.6424   77.2589 C   0  0  0  0  0  0  0  0  0  0  0  0
   15.8078   41.3468   77.5622 C   0  0  0  0  0  0  0  0  0  0  0  0
   16.9150   41.3179   76.7546 C   0  0  0  0  0  0  0  0  0  0  0  0
   18.1528   42.0497   77.0567 C   0  0  1  0  0  0  0  0  0  0  0  0
   18.8928   42.6368   75.9453 C   0  0  0  0  0  0  0  0  0  0  0  0
   18.2558   43.7024   75.1921 N   0  0  0  0  0  0  0  0  0  0  0  0
   20.0629   42.2490   75.6329 N   0  0  0  0  0  4  0  0  0  0  0  0
   18.0870   42.9439   78.2736 C   0  0  0  0  0  0  0  0  0  0  0  0
   19.5668   42.5751   78.4676 C   0  0  0  0  0  0  0  0  0  0  0  0
   19.1403   41.2018   77.9150 C   0  0  0  0  0  0  0  0  0  0  0  0
   16.8369   40.5536   75.6193 C   0  0  0  0  0  0  0  0  0  0  0  0
   15.6977   39.8359   75.2871 C   0  0  0  0  0  0  0  0  0  0  0  0
   15.6185   38.8656   73.8321 Cl  0  0  0  0  0  0  0  0  0  0  0  0
   14.6249   39.8898   76.1098 C   0  0  0  0  0  0  0  0  0  0  0  0
   12.2212   40.6610   77.5867 C   0  0  0  0  0  0  0  0  0  0  0  0
   11.0736   40.7013   78.3754 C   0  0  0  0  0  0  0  0  0  0  0  0
  1  2  1  1
  2  3  1  1
  3 22  2  0
  3  4  1  0
  4  5  2  0
  5  6  1  0
  6  7  1  0
  6 21  2  0
  7 20  1  0
  7  8  2  0
  8  9  1  0
 10  9  1  6
  9 17  2  0
 10 16  1  0
 10 11  1  0
 14 10  1  6
 11 12  1  0
 11 13  2  3
 15 14  1  6
 16 15  1  1
 17 18  1  0
 18 19  1  0
 18 20  2  0
 21 22  1  0
M  CHG  2   1   1  13   1
M  END
$$$$
