
     RDKit          3D

 22 24  0  0  0  0  0  0  0  0999 V2000
   26.8653   40.7826   73.3308 N   0  0  0  0  0  4  0  0  0  0  0  0
   26.7173   41.9670   72.4341 C   0  0  0  0  0  0  0  0  0  0  0  0
   26.3933   41.4215   71.0842 C   0  0  0  0  0  0  0  0  0  0  0  0
   27.3977   40.9021   70.2878 C   0  0  0  0  0  0  0  0  0  0  0  0
   27.1203   40.3862   69.0215 C   0  0  0  0  0  0  0  0  0  0  0  0
   25.8331   40.3838   68.5362 C   0  0  0  0  0  0  0  0  0  0  0  0
   25.4954   39.8515   67.2098 C   0  0  0  0  0  0  0  0  0  0  0  0
   24.4054   40.3242   66.5016 C   0  0  0  0  0  0  0  0  0  0  0  0
   24.0744   39.8397   65.2628 C   0  0  0  0  0  0  0  0  0  0  0  0
   22.9275   40.3291   64.4855 C   0  0  1  0  0  0  0  0  0  0  0  0
   21.5880   40.0838   65.0081 C   0  0  0  0  0  0  0  0  0  0  0  0
   20.8810   41.1973   65.6155 N   0  0  0  0  0  0  0  0  0  0  0  0
   21.0342   38.9413   64.9380 N   0  0  0  0  0  4  0  0  0  0  0  0
   23.0978   41.7094   63.8934 C   0  0  0  0  0  0  0  0  0  0  0  0
   22.2463   41.1767   62.7294 C   0  0  0  0  0  0  0  0  0  0  0  0
   22.9757   39.8477   63.0034 C   0  0  0  0  0  0  0  0  0  0  0  0
   24.8760   38.8553   64.7455 C   0  0  0  0  0  0  0  0  0  0  0  0
   25.9756   38.3601   65.4302 C   0  0  0  0  0  0  0  0  0  0  0  0
   26.9867   37.1024   64.7515 Cl  0  0  0  0  0  0  0  0  0  0  0  0
   26.2700   38.8639   66.6509 C   0  0  0  0  0  0  0  0  0  0  0  0
   24.8391   40.9015   69.3327 C   0  0  0  0  0  0  0  0  0  0  0  0
   25.1063   41.4187   70.5983 C   0  0  0  0  0  0  0  0  0  0  0  0
  1  2  1  1
  2  3  1  1
  3 22  2  0
  3  4  1  0
  4  5  2  0
  5  6  1  0
  6  7  1  0
  6 21  2  0
  7 20  1  0
  7  8  2  0
  8  9  1  0
 10  9  1  1
  9 17  2  0
 10 16  1  0
 10 11  1  0
 14 10  1  6
 11 12  1  0
 11 13  2  3
 15 14  1  6
 16 15  1  1
 17 18  1  0
 18 19  1  0
 18 20  2  0
 21 22  1  0
M  CHG  2   1   1  13   1
M  END
$$$$
