
     RDKit          3D

 22 24  0  0  0  0  0  0  0  0999 V2000
   17.7531   44.3792   82.7153 N   0  0  0  0  0  4  0  0  0  0  0  0
   17.1074   44.6436   81.3954 C   0  0  0  0  0  0  0  0  0  0  0  0
   16.2843   43.4372   81.0925 C   0  0  0  0  0  0  0  0  0  0  0  0
   14.9471   43.4051   81.4440 C   0  0  0  0  0  0  0  0  0  0  0  0
   14.1561   42.2884   81.1718 C   0  0  0  0  0  0  0  0  0  0  0  0
   14.6943   41.1891   80.5438 C   0  0  0  0  0  0  0  0  0  0  0  0
   13.8997   39.9926   80.2381 C   0  0  0  0  0  0  0  0  0  0  0  0
   12.6384   40.0906   79.6790 C   0  0  0  0  0  0  0  0  0  0  0  0
   11.8819   38.9855   79.3870 C   0  0  0  0  0  0  0  0  0  0  0  0
   10.5433   39.0604   78.7858 C   0  0  1  0  0  0  0  0  0  0  0  0
    9.3903   39.1016   79.6782 C   0  0  0  0  0  0  0  0  0  0  0  0
    9.3000   40.2019   80.6217 N   0  0  0  0  0  0  0  0  0  0  0  0
    8.4772   38.2172   79.6435 N   0  0  0  0  0  4  0  0  0  0  0  0
   10.4232   39.9972   77.6057 C   0  0  0  0  0  0  0  0  0  0  0  0
    9.3969   38.9861   77.0692 C   0  0  0  0  0  0  0  0  0  0  0  0
   10.3113   37.9369   77.7300 C   0  0  0  0  0  0  0  0  0  0  0  0
   12.4307   37.7625   79.6741 C   0  0  0  0  0  0  0  0  0  0  0  0
   13.6923   37.6306   80.2347 C   0  0  0  0  0  0  0  0  0  0  0  0
   14.3750   36.0591   80.5938 Cl  0  0  0  0  0  0  0  0  0  0  0  0
   14.4085   38.7453   80.5087 C   0  0  0  0  0  0  0  0  0  0  0  0
   16.0243   41.2272   80.1969 C   0  0  0  0  0  0  0  0  0  0  0  0
   16.8218   42.3376   80.4645 C   0  0  0  0  0  0  0  0  0  0  0  0
  1  2  1  1
  2  3  1  1
  3 22  2  0
  3  4  1  0
  4  5  2  0
  5  6  1  0
  6  7  1  0
  6 21  2  0
  7 20  1  0
  7  8  2  0
  8  9  1  0
 10  9  1  1
  9 17  2  0
 10 16  1  0
 10 11  1  0
 14 10  1  6
 11 12  1  0
 11 13  2  3
 15 14  1  6
 16 15  1  1
 17 18  1  0
 18 19  1  0
 18 20  2  0
 21 22  1  0
M  CHG  2   1   1  13   1
M  END
$$$$
