
     RDKit          3D

 22 24  0  0  0  0  0  0  0  0999 V2000
   18.0788   24.8531   74.2732 N   0  0  0  0  0  4  0  0  0  0  0  0
   18.4891   24.2848   72.9550 C   0  0  0  0  0  0  0  0  0  0  0  0
   17.8986   25.1819   71.9200 C   0  0  0  0  0  0  0  0  0  0  0  0
   18.2305   26.5243   71.8963 C   0  0  0  0  0  0  0  0  0  0  0  0
   17.6915   27.3840   70.9385 C   0  0  0  0  0  0  0  0  0  0  0  0
   16.8129   26.9102   69.9919 C   0  0  0  0  0  0  0  0  0  0  0  0
   16.2212   27.7784   68.9659 C   0  0  0  0  0  0  0  0  0  0  0  0
   15.7607   27.2643   67.7672 C   0  0  0  0  0  0  0  0  0  0  0  0
   15.2059   28.0588   66.7978 C   0  0  0  0  0  0  0  0  0  0  0  0
   14.7017   27.5383   65.5196 C   0  0  1  0  0  0  0  0  0  0  0  0
   15.4385   27.8679   64.3046 C   0  0  0  0  0  0  0  0  0  0  0  0
   16.3444   26.8686   63.7668 N   0  0  0  0  0  0  0  0  0  0  0  0
   15.3016   28.9857   63.7138 N   0  0  0  0  0  4  0  0  0  0  0  0
   14.2162   26.1074   65.5580 C   0  0  0  0  0  0  0  0  0  0  0  0
   13.1862   26.5622   64.5112 C   0  0  0  0  0  0  0  0  0  0  0  0
   13.1988   27.8876   65.2964 C   0  0  0  0  0  0  0  0  0  0  0  0
   15.1236   29.4008   67.0653 C   0  0  0  0  0  0  0  0  0  0  0  0
   15.5761   29.9471   68.2569 C   0  0  0  0  0  0  0  0  0  0  0  0
   15.4617   31.6641   68.5788 Cl  0  0  0  0  0  0  0  0  0  0  0  0
   16.1178   29.1302   69.1894 C   0  0  0  0  0  0  0  0  0  0  0  0
   16.4870   25.5747   70.0208 C   0  0  0  0  0  0  0  0  0  0  0  0
   17.0200   24.7088   70.9731 C   0  0  0  0  0  0  0  0  0  0  0  0
  1  2  1  1
  2  3  1  1
  3 22  2  0
  3  4  1  0
  4  5  2  0
  5  6  1  0
  6  7  1  0
  6 21  2  0
  7 20  1  0
  7  8  2  0
  8  9  1  0
 10  9  1  1
  9 17  2  0
 10 16  1  0
 10 11  1  0
 14 10  1  6
 11 12  1  0
 11 13  2  3
 15 14  1  6
 16 15  1  1
 17 18  1  0
 18 19  1  0
 18 20  2  0
 21 22  1  0
M  CHG  2   1   1  13   1
M  END
$$$$
