
     RDKit          3D

 22 24  0  0  0  0  0  0  0  0999 V2000
   20.6472   44.3712   81.5552 N   0  0  0  0  0  4  0  0  0  0  0  0
   20.7826   45.2152   80.3312 C   0  0  0  0  0  0  0  0  0  0  0  0
   20.1903   44.4198   79.2170 C   0  0  0  0  0  0  0  0  0  0  0  0
   19.4051   43.3158   79.4955 C   0  0  0  0  0  0  0  0  0  0  0  0
   18.8401   42.5554   78.4712 C   0  0  0  0  0  0  0  0  0  0  0  0
   19.0541   42.8910   77.1544 C   0  0  0  0  0  0  0  0  0  0  0  0
   18.4797   42.1196   76.0445 C   0  0  0  0  0  0  0  0  0  0  0  0
   19.1978   41.8823   74.8864 C   0  0  0  0  0  0  0  0  0  0  0  0
   18.6786   41.1650   73.8401 C   0  0  0  0  0  0  0  0  0  0  0  0
   19.4218   40.8914   72.6024 C   0  0  1  0  0  0  0  0  0  0  0  0
   20.8460   40.5947   72.7072 C   0  0  0  0  0  0  0  0  0  0  0  0
   21.7828   41.6920   72.5429 N   0  0  0  0  0  0  0  0  0  0  0  0
   21.2762   39.4212   72.9421 N   0  0  0  0  0  4  0  0  0  0  0  0
   18.6987   40.0201   71.6011 C   0  0  0  0  0  0  0  0  0  0  0  0
   19.4185   40.8649   70.5371 C   0  0  0  0  0  0  0  0  0  0  0  0
   19.2282   42.0174   71.5416 C   0  0  0  0  0  0  0  0  0  0  0  0
   17.4030   40.6849   73.9874 C   0  0  0  0  0  0  0  0  0  0  0  0
   16.6571   40.9055   75.1356 C   0  0  0  0  0  0  0  0  0  0  0  0
   15.0294   40.2835   75.3037 Cl  0  0  0  0  0  0  0  0  0  0  0  0
   17.2045   41.6185   76.1468 C   0  0  0  0  0  0  0  0  0  0  0  0
   19.8355   43.9896   76.8841 C   0  0  0  0  0  0  0  0  0  0  0  0
   20.4038   44.7548   77.9000 C   0  0  0  0  0  0  0  0  0  0  0  0
  1  2  1  1
  2  3  1  1
  3 22  2  0
  3  4  1  0
  4  5  2  0
  5  6  1  0
  6  7  1  0
  6 21  2  0
  7 20  1  0
  7  8  2  0
  8  9  1  0
 10  9  1  1
  9 17  2  0
 10 16  1  0
 10 11  1  0
 14 10  1  6
 11 12  1  0
 11 13  2  3
 15 14  1  6
 16 15  1  1
 17 18  1  0
 18 19  1  0
 18 20  2  0
 21 22  1  0
M  CHG  2   1   1  13   1
M  END
$$$$
