
     RDKit          3D

 22 24  0  0  0  0  0  0  0  0999 V2000
    9.5959   42.8690   59.0619 N   0  0  0  0  0  4  0  0  0  0  0  0
    9.3626   42.7886   57.5894 C   0  0  0  0  0  0  0  0  0  0  0  0
   10.6870   42.4711   56.9812 C   0  0  0  0  0  0  0  0  0  0  0  0
   11.8390   43.0374   57.4960 C   0  0  0  0  0  0  0  0  0  0  0  0
   13.0896   42.7565   56.9447 C   0  0  0  0  0  0  0  0  0  0  0  0
   13.2026   41.9046   55.8704 C   0  0  0  0  0  0  0  0  0  0  0  0
   14.4976   41.5809   55.2582 C   0  0  0  0  0  0  0  0  0  0  0  0
   14.6297   41.4365   53.8889 C   0  0  0  0  0  0  0  0  0  0  0  0
   15.8297   41.1343   53.2996 C   0  0  0  0  0  0  0  0  0  0  0  0
   15.9999   40.9832   51.8480 C   0  0  1  0  0  0  0  0  0  0  0  0
   16.1239   42.1919   51.0409 C   0  0  0  0  0  0  0  0  0  0  0  0
   16.9451   43.2725   51.5571 N   0  0  0  0  0  0  0  0  0  0  0  0
   15.5464   42.3143   49.9146 N   0  0  0  0  0  4  0  0  0  0  0  0
   16.9422   39.8795   51.4254 C   0  0  0  0  0  0  0  0  0  0  0  0
   16.0067   39.7167   50.2164 C   0  0  0  0  0  0  0  0  0  0  0  0
   14.8952   40.0803   51.2193 C   0  0  0  0  0  0  0  0  0  0  0  0
   16.9090   40.9788   54.1304 C   0  0  0  0  0  0  0  0  0  0  0  0
   16.8096   41.1169   55.5067 C   0  0  0  0  0  0  0  0  0  0  0  0
   18.2005   40.9140   56.5503 Cl  0  0  0  0  0  0  0  0  0  0  0  0
   15.6075   41.4156   56.0511 C   0  0  0  0  0  0  0  0  0  0  0  0
   12.0537   41.3450   55.3633 C   0  0  0  0  0  0  0  0  0  0  0  0
   10.8008   41.6194   55.9070 C   0  0  0  0  0  0  0  0  0  0  0  0
  1  2  1  1
  2  3  1  1
  3 22  2  0
  3  4  1  0
  4  5  2  0
  5  6  1  0
  6  7  1  0
  6 21  2  0
  7 20  1  0
  7  8  2  0
  8  9  1  0
 10  9  1  1
  9 17  2  0
 10 16  1  0
 10 11  1  0
 14 10  1  6
 11 12  1  0
 11 13  2  3
 15 14  1  6
 16 15  1  1
 17 18  1  0
 18 19  1  0
 18 20  2  0
 21 22  1  0
M  CHG  2   1   1  13   1
M  END
$$$$
