
     RDKit          3D

 22 24  0  0  0  0  0  0  0  0999 V2000
   32.9920   42.6848   62.8459 N   0  0  0  0  0  4  0  0  0  0  0  0
   33.3589   42.3178   64.2458 C   0  0  0  0  0  0  0  0  0  0  0  0
   32.1068   41.8114   64.8786 C   0  0  0  0  0  0  0  0  0  0  0  0
   30.9556   41.6756   64.1242 C   0  0  0  0  0  0  0  0  0  0  0  0
   29.7717   41.2045   64.6928 C   0  0  0  0  0  0  0  0  0  0  0  0
   29.7255   40.8632   66.0246 C   0  0  0  0  0  0  0  0  0  0  0  0
   28.5019   40.3637   66.6648 C   0  0  0  0  0  0  0  0  0  0  0  0
   28.3009   40.4886   68.0276 C   0  0  0  0  0  0  0  0  0  0  0  0
   27.1658   40.0285   68.6428 C   0  0  0  0  0  0  0  0  0  0  0  0
   26.9230   40.1552   70.0864 C   0  0  1  0  0  0  0  0  0  0  0  0
   27.0728   38.9647   70.9158 C   0  0  0  0  0  0  0  0  0  0  0  0
   28.4188   38.5047   71.2078 N   0  0  0  0  0  0  0  0  0  0  0  0
   26.0708   38.3381   71.3854 N   0  0  0  0  0  4  0  0  0  0  0  0
   27.4861   41.4053   70.7228 C   0  0  0  0  0  0  0  0  0  0  0  0
   26.2579   41.3363   71.6449 C   0  0  0  0  0  0  0  0  0  0  0  0
   25.5372   40.8003   70.3933 C   0  0  0  0  0  0  0  0  0  0  0  0
   26.2243   39.4315   67.8450 C   0  0  0  0  0  0  0  0  0  0  0  0
   26.3958   39.2909   66.4760 C   0  0  0  0  0  0  0  0  0  0  0  0
   25.1809   38.5252   65.4748 Cl  0  0  0  0  0  0  0  0  0  0  0  0
   27.5302   39.7580   65.9054 C   0  0  0  0  0  0  0  0  0  0  0  0
   30.8733   41.0005   66.7692 C   0  0  0  0  0  0  0  0  0  0  0  0
   32.0598   41.4700   66.2103 C   0  0  0  0  0  0  0  0  0  0  0  0
  1  2  1  1
  2  3  1  1
  3 22  2  0
  3  4  1  0
  4  5  2  0
  5  6  1  0
  6  7  1  0
  6 21  2  0
  7 20  1  0
  7  8  2  0
  8  9  1  0
 10  9  1  6
  9 17  2  0
 10 16  1  0
 10 11  1  0
 14 10  1  6
 11 12  1  0
 11 13  2  3
 15 14  1  6
 16 15  1  1
 17 18  1  0
 18 19  1  0
 18 20  2  0
 21 22  1  0
M  CHG  2   1   1  13   1
M  END
$$$$
