
     RDKit          3D

 22 24  0  0  0  0  0  0  0  0999 V2000
   16.4226   43.8753   84.1421 N   0  0  0  0  0  4  0  0  0  0  0  0
   17.6318   44.2373   83.3447 C   0  0  0  0  0  0  0  0  0  0  0  0
   17.3738   43.7430   81.9613 C   0  0  0  0  0  0  0  0  0  0  0  0
   18.4254   43.3149   81.1715 C   0  0  0  0  0  0  0  0  0  0  0  0
   18.2101   42.8484   79.8743 C   0  0  0  0  0  0  0  0  0  0  0  0
   16.9385   42.8046   79.3511 C   0  0  0  0  0  0  0  0  0  0  0  0
   16.6655   42.3217   77.9913 C   0  0  0  0  0  0  0  0  0  0  0  0
   17.6816   42.1671   77.0657 C   0  0  0  0  0  0  0  0  0  0  0  0
   17.4463   41.7182   75.7922 C   0  0  0  0  0  0  0  0  0  0  0  0
   18.5073   41.5371   74.7919 C   0  0  1  0  0  0  0  0  0  0  0  0
   19.4792   42.6109   74.6188 C   0  0  0  0  0  0  0  0  0  0  0  0
   20.6035   42.6644   75.5363 N   0  0  0  0  0  0  0  0  0  0  0  0
   19.3697   43.4789   73.6960 N   0  0  0  0  0  4  0  0  0  0  0  0
   19.1235   40.1574   74.7551 C   0  0  0  0  0  0  0  0  0  0  0  0
   19.2678   40.4006   73.2440 C   0  0  0  0  0  0  0  0  0  0  0  0
   17.9347   41.1583   73.3922 C   0  0  0  0  0  0  0  0  0  0  0  0
   16.1475   41.4241   75.4665 C   0  0  0  0  0  0  0  0  0  0  0  0
   15.1066   41.5684   76.3714 C   0  0  0  0  0  0  0  0  0  0  0  0
   13.4545   41.1872   75.9353 Cl  0  0  0  0  0  0  0  0  0  0  0  0
   15.3791   42.0145   77.6193 C   0  0  0  0  0  0  0  0  0  0  0  0
   15.8974   43.2315   80.1413 C   0  0  0  0  0  0  0  0  0  0  0  0
   16.1026   43.6988   81.4375 C   0  0  0  0  0  0  0  0  0  0  0  0
  1  2  1  1
  2  3  1  1
  3 22  2  0
  3  4  1  0
  4  5  2  0
  5  6  1  0
  6  7  1  0
  6 21  2  0
  7 20  1  0
  7  8  2  0
  8  9  1  0
 10  9  1  1
  9 17  2  0
 10 16  1  0
 10 11  1  0
 14 10  1  6
 11 12  1  0
 11 13  2  3
 15 14  1  6
 16 15  1  1
 17 18  1  0
 18 19  1  0
 18 20  2  0
 21 22  1  0
M  CHG  2   1   1  13   1
M  END
$$$$
