
     RDKit          3D

 22 24  0  0  0  0  0  0  0  0999 V2000
   21.7273   43.0878   78.3197 N   0  0  0  0  0  4  0  0  0  0  0  0
   21.0856   43.6187   77.0806 C   0  0  0  0  0  0  0  0  0  0  0  0
   19.7284   43.0024   77.0252 C   0  0  0  0  0  0  0  0  0  0  0  0
   19.3099   42.1575   78.0370 C   0  0  0  0  0  0  0  0  0  0  0  0
   18.0454   41.5684   78.0082 C   0  0  0  0  0  0  0  0  0  0  0  0
   17.1835   41.8181   76.9654 C   0  0  0  0  0  0  0  0  0  0  0  0
   15.8442   41.2199   76.8938 C   0  0  0  0  0  0  0  0  0  0  0  0
   15.1196   40.9400   78.0382 C   0  0  0  0  0  0  0  0  0  0  0  0
   13.8686   40.3817   77.9913 C   0  0  0  0  0  0  0  0  0  0  0  0
   13.0740   40.0816   79.1903 C   0  0  1  0  0  0  0  0  0  0  0  0
   12.5291   38.7363   79.3347 C   0  0  0  0  0  0  0  0  0  0  0  0
   13.3831   37.7159   79.9162 N   0  0  0  0  0  0  0  0  0  0  0  0
   11.3440   38.4454   78.9769 N   0  0  0  0  0  4  0  0  0  0  0  0
   13.6214   40.6496   80.4796 C   0  0  0  0  0  0  0  0  0  0  0  0
   12.1477   40.7980   80.8918 C   0  0  0  0  0  0  0  0  0  0  0  0
   11.9192   41.1078   79.4001 C   0  0  0  0  0  0  0  0  0  0  0  0
   13.3559   40.1077   76.7498 C   0  0  0  0  0  0  0  0  0  0  0  0
   14.0570   40.3763   75.5838 C   0  0  0  0  0  0  0  0  0  0  0  0
   13.3840   40.0186   74.0077 Cl  0  0  0  0  0  0  0  0  0  0  0  0
   15.2894   40.9278   75.6712 C   0  0  0  0  0  0  0  0  0  0  0  0
   17.6056   42.6589   75.9627 C   0  0  0  0  0  0  0  0  0  0  0  0
   18.8661   43.2516   75.9828 C   0  0  0  0  0  0  0  0  0  0  0  0
  1  2  1  1
  2  3  1  1
  3 22  2  0
  3  4  1  0
  4  5  2  0
  5  6  1  0
  6  7  1  0
  6 21  2  0
  7 20  1  0
  7  8  2  0
  8  9  1  0
 10  9  1  6
  9 17  2  0
 10 16  1  0
 10 11  1  0
 14 10  1  6
 11 12  1  0
 11 13  2  3
 15 14  1  6
 16 15  1  1
 17 18  1  0
 18 19  1  0
 18 20  2  0
 21 22  1  0
M  CHG  2   1   1  13   1
M  END
$$$$
