
     RDKit          3D

 22 24  0  0  0  0  0  0  0  0999 V2000
  883.6840-3309.6963 1615.4282 N   0  0  0  0  0  4  0  0  0  0  0  0
  882.9283-3308.9387 1614.3870 C   0  0  0  0  0  0  0  0  0  0  0  0
  883.3781-3307.5222 1614.5045 C   0  0  0  0  0  0  0  0  0  0  0  0
  884.7272-3307.2283 1614.5945 C   0  0  0  0  0  0  0  0  0  0  0  0
  885.1728-3305.9102 1614.7048 C   0  0  0  0  0  0  0  0  0  0  0  0
  884.2734-3304.8696 1614.7269 C   0  0  0  0  0  0  0  0  0  0  0  0
  884.6978-3303.4680 1614.8428 C   0  0  0  0  0  0  0  0  0  0  0  0
  884.2867-3302.5151 1613.9290 C   0  0  0  0  0  0  0  0  0  0  0  0
  884.6721-3301.2029 1614.0194 C   0  0  0  0  0  0  0  0  0  0  0  0
  884.2441-3300.1692 1613.0679 C   0  0  1  0  0  0  0  0  0  0  0  0
  883.1988-3299.2407 1613.4852 C   0  0  0  0  0  0  0  0  0  0  0  0
  881.9081-3299.7937 1613.8551 N   0  0  0  0  0  0  0  0  0  0  0  0
  883.3917-3297.9851 1613.5369 N   0  0  0  0  0  4  0  0  0  0  0  0
  885.3625-3299.5056 1612.2968 C   0  0  0  0  0  0  0  0  0  0  0  0
  884.3470-3299.4182 1611.1460 C   0  0  0  0  0  0  0  0  0  0  0  0
  883.8472-3300.7710 1611.6863 C   0  0  0  0  0  0  0  0  0  0  0  0
  885.4921-3300.8669 1615.0654 C   0  0  0  0  0  0  0  0  0  0  0  0
  885.9220-3301.7996 1615.9980 C   0  0  0  0  0  0  0  0  0  0  0  0
  886.9690-3301.3484 1617.3269 Cl  0  0  0  0  0  0  0  0  0  0  0  0
  885.5199-3303.0857 1615.8749 C   0  0  0  0  0  0  0  0  0  0  0  0
  882.9343-3305.1682 1614.6372 C   0  0  0  0  0  0  0  0  0  0  0  0
  882.4799-3306.4800 1614.5267 C   0  0  0  0  0  0  0  0  0  0  0  0
  1  2  1  1
  2  3  1  1
  3 22  2  0
  3  4  1  0
  4  5  2  0
  5  6  1  0
  6  7  1  0
  6 21  2  0
  7 20  1  0
  7  8  2  0
  8  9  1  0
 10  9  1  1
  9 17  2  0
 10 16  1  0
 10 11  1  0
 14 10  1  6
 11 12  1  0
 11 13  2  3
 15 14  1  6
 16 15  1  1
 17 18  1  0
 18 19  1  0
 18 20  2  0
 21 22  1  0
M  CHG  2   1   1  13   1
M  END
$$$$
