
     RDKit          3D

 22 24  0  0  0  0  0  0  0  0999 V2000
   22.2554   22.6745   66.7563 N   0  0  0  0  0  4  0  0  0  0  0  0
   23.6186   22.2144   66.3573 C   0  0  0  0  0  0  0  0  0  0  0  0
   24.1645   23.2763   65.4634 C   0  0  0  0  0  0  0  0  0  0  0  0
   23.4243   24.4170   65.2111 C   0  0  0  0  0  0  0  0  0  0  0  0
   23.9127   25.4245   64.3785 C   0  0  0  0  0  0  0  0  0  0  0  0
   25.1490   25.3024   63.7876 C   0  0  0  0  0  0  0  0  0  0  0  0
   25.7023   26.3371   62.9045 C   0  0  0  0  0  0  0  0  0  0  0  0
   26.9289   26.1740   62.2863 C   0  0  0  0  0  0  0  0  0  0  0  0
   27.4616   27.1284   61.4591 C   0  0  0  0  0  0  0  0  0  0  0  0
   28.7578   26.9778   60.7837 C   0  0  1  0  0  0  0  0  0  0  0  0
   28.7624   26.5143   59.4007 C   0  0  0  0  0  0  0  0  0  0  0  0
   28.7317   25.0819   59.1637 N   0  0  0  0  0  0  0  0  0  0  0  0
   28.7845   27.3210   58.4179 N   0  0  0  0  0  4  0  0  0  0  0  0
   29.7504   28.0863   61.0490 C   0  0  0  0  0  0  0  0  0  0  0  0
   30.8171   26.9843   60.9426 C   0  0  0  0  0  0  0  0  0  0  0  0
   29.7470   26.0951   61.6041 C   0  0  0  0  0  0  0  0  0  0  0  0
   26.7221   28.2663   61.2652 C   0  0  0  0  0  0  0  0  0  0  0  0
   25.4894   28.4601   61.8703 C   0  0  0  0  0  0  0  0  0  0  0  0
   24.5607   29.9210   61.6093 Cl  0  0  0  0  0  0  0  0  0  0  0  0
   24.9970   27.4947   62.6802 C   0  0  0  0  0  0  0  0  0  0  0  0
   25.8799   24.1661   64.0424 C   0  0  0  0  0  0  0  0  0  0  0  0
   25.4007   23.1549   64.8723 C   0  0  0  0  0  0  0  0  0  0  0  0
  1  2  1  1
  2  3  1  1
  3 22  2  0
  3  4  1  0
  4  5  2  0
  5  6  1  0
  6  7  1  0
  6 21  2  0
  7 20  1  0
  7  8  2  0
  8  9  1  0
 10  9  1  1
  9 17  2  0
 10 16  1  0
 10 11  1  0
 14 10  1  6
 11 12  1  0
 11 13  2  3
 15 14  1  6
 16 15  1  1
 17 18  1  0
 18 19  1  0
 18 20  2  0
 21 22  1  0
M  CHG  2   1   1  13   1
M  END
$$$$
