
     RDKit          3D

 22 24  0  0  0  0  0  0  0  0999 V2000
-124376.335957010.937561068.4336 N   0  0  0  0  0  4  0  0  0  0  0  0
-124376.085957010.750061066.9688 C   0  0  0  0  0  0  0  0  0  0  0  0
-124374.765657011.375061066.6914 C   0  0  0  0  0  0  0  0  0  0  0  0
-124374.609457012.718861066.6094 C   0  0  0  0  0  0  0  0  0  0  0  0
-124373.398457013.335961066.3555 C   0  0  0  0  0  0  0  0  0  0  0  0
-124372.312557012.570361066.1953 C   0  0  0  0  0  0  0  0  0  0  0  0
-124370.968857013.152361065.9375 C   0  0  0  0  0  0  0  0  0  0  0  0
-124370.781257014.543061065.8398 C   0  0  0  0  0  0  0  0  0  0  0  0
-124369.593857015.113361065.5898 C   0  0  0  0  0  0  0  0  0  0  0  0
-124369.367257016.558661065.4883 C   0  0  1  0  0  0  0  0  0  0  0  0
-124370.539157017.410261065.3281 C   0  0  0  0  0  0  0  0  0  0  0  0
-124371.125057017.992261066.4961 N   0  0  0  0  0  0  0  0  0  0  0  0
-124371.015657017.671961064.1680 N   0  0  0  0  0  4  0  0  0  0  0  0
-124368.367257017.117261066.4258 C   0  0  0  0  0  0  0  0  0  0  0  0
-124368.015657018.074261065.2930 C   0  0  0  0  0  0  0  0  0  0  0  0
-124368.328157016.902361064.3789 C   0  0  0  0  0  0  0  0  0  0  0  0
-124368.484457014.246161065.4492 C   0  0  0  0  0  0  0  0  0  0  0  0
-124368.656257012.855561065.5469 C   0  0  0  0  0  0  0  0  0  0  0  0
-124367.281257011.793061065.3477 Cl  0  0  0  0  0  0  0  0  0  0  0  0
-124369.859457012.332061065.7891 C   0  0  0  0  0  0  0  0  0  0  0  0
-124372.429757011.210961066.3125 C   0  0  0  0  0  0  0  0  0  0  0  0
-124373.632857010.593861066.5703 C   0  0  0  0  0  0  0  0  0  0  0  0
  1  2  1  1
  2  3  1  1
  3 22  2  0
  3  4  1  0
  4  5  2  0
  5  6  1  0
  6  7  1  0
  6 21  2  0
  7 20  1  0
  7  8  2  0
  8  9  1  0
 10  9  1  1
  9 17  2  0
 10 16  1  0
 10 11  1  0
 14 10  1  6
 11 12  1  0
 11 13  2  3
 15 14  1  6
 16 15  1  1
 17 18  1  0
 18 19  1  0
 18 20  2  0
 21 22  1  0
M  CHG  2   1   1  13   1
M  END
$$$$
