
     RDKit          3D

 22 24  0  0  0  0  0  0  0  0999 V2000
   10.2236   52.7944   68.2593 N   0  0  0  0  0  4  0  0  0  0  0  0
   10.1844   51.8257   69.3947 C   0  0  0  0  0  0  0  0  0  0  0  0
   10.4390   50.4830   68.7972 C   0  0  0  0  0  0  0  0  0  0  0  0
   11.5817   49.7805   69.1342 C   0  0  0  0  0  0  0  0  0  0  0  0
   11.8428   48.5231   68.5888 C   0  0  0  0  0  0  0  0  0  0  0  0
   10.9625   47.9528   67.6986 C   0  0  0  0  0  0  0  0  0  0  0  0
   11.1968   46.6324   67.0999 C   0  0  0  0  0  0  0  0  0  0  0  0
   12.4696   46.2149   66.7552 C   0  0  0  0  0  0  0  0  0  0  0  0
   12.7079   44.9866   66.1953 C   0  0  0  0  0  0  0  0  0  0  0  0
   14.0498   44.5148   65.8272 C   0  0  1  0  0  0  0  0  0  0  0  0
   14.3350   44.2871   64.4150 C   0  0  0  0  0  0  0  0  0  0  0  0
   14.3069   45.4324   63.5227 N   0  0  0  0  0  0  0  0  0  0  0  0
   14.6096   43.1322   63.9589 N   0  0  0  0  0  4  0  0  0  0  0  0
   15.1873   45.1768   66.5705 C   0  0  0  0  0  0  0  0  0  0  0  0
   15.8850   43.8112   66.4622 C   0  0  0  0  0  0  0  0  0  0  0  0
   14.4631   43.2416   66.6265 C   0  0  0  0  0  0  0  0  0  0  0  0
   11.6216   44.1767   65.9872 C   0  0  0  0  0  0  0  0  0  0  0  0
   10.3333   44.5659   66.3216 C   0  0  0  0  0  0  0  0  0  0  0  0
    8.9593   43.5162   66.0475 Cl  0  0  0  0  0  0  0  0  0  0  0  0
   10.1385   45.7862   66.8725 C   0  0  0  0  0  0  0  0  0  0  0  0
    9.8284   48.6561   67.3677 C   0  0  0  0  0  0  0  0  0  0  0  0
    9.5592   49.9121   67.9070 C   0  0  0  0  0  0  0  0  0  0  0  0
  1  2  1  1
  2  3  1  1
  3 22  2  0
  3  4  1  0
  4  5  2  0
  5  6  1  0
  6  7  1  0
  6 21  2  0
  7 20  1  0
  7  8  2  0
  8  9  1  0
 10  9  1  6
  9 17  2  0
 10 16  1  0
 10 11  1  0
 14 10  1  6
 11 12  1  0
 11 13  2  3
 15 14  1  6
 16 15  1  1
 17 18  1  0
 18 19  1  0
 18 20  2  0
 21 22  1  0
M  CHG  2   1   1  13   1
M  END
$$$$
