
     RDKit          3D

 22 24  0  0  0  0  0  0  0  0999 V2000
   20.4157   27.5266   74.1528 N   0  0  0  0  0  4  0  0  0  0  0  0
   19.2083   26.6871   73.8949 C   0  0  0  0  0  0  0  0  0  0  0  0
   18.7012   27.0991   72.5541 C   0  0  0  0  0  0  0  0  0  0  0  0
   19.0306   26.3603   71.4322 C   0  0  0  0  0  0  0  0  0  0  0  0
   18.5690   26.7250   70.1670 C   0  0  0  0  0  0  0  0  0  0  0  0
   17.7713   27.8346   70.0090 C   0  0  0  0  0  0  0  0  0  0  0  0
   17.2634   28.2556   68.6970 C   0  0  0  0  0  0  0  0  0  0  0  0
   16.7261   27.3430   67.8073 C   0  0  0  0  0  0  0  0  0  0  0  0
   16.2474   27.7169   66.5786 C   0  0  0  0  0  0  0  0  0  0  0  0
   15.6645   26.7701   65.6180 C   0  0  1  0  0  0  0  0  0  0  0  0
   16.4684   26.3772   64.4660 C   0  0  0  0  0  0  0  0  0  0  0  0
   17.1351   25.0879   64.5104 N   0  0  0  0  0  0  0  0  0  0  0  0
   16.5894   27.1207   63.4415 N   0  0  0  0  0  4  0  0  0  0  0  0
   14.8980   25.6227   66.2349 C   0  0  0  0  0  0  0  0  0  0  0  0
   13.9954   25.7252   64.9946 C   0  0  0  0  0  0  0  0  0  0  0  0
   14.2668   27.2374   65.1091 C   0  0  0  0  0  0  0  0  0  0  0  0
   16.3224   29.0483   66.2608 C   0  0  0  0  0  0  0  0  0  0  0  0
   16.8553   29.9880   67.1303 C   0  0  0  0  0  0  0  0  0  0  0  0
   16.9419   31.6840   66.7050 Cl  0  0  0  0  0  0  0  0  0  0  0  0
   17.3178   29.5798   68.3345 C   0  0  0  0  0  0  0  0  0  0  0  0
   17.4474   28.5648   71.1281 C   0  0  0  0  0  0  0  0  0  0  0  0
   17.9035   28.2085   72.3953 C   0  0  0  0  0  0  0  0  0  0  0  0
  1  2  1  1
  2  3  1  1
  3 22  2  0
  3  4  1  0
  4  5  2  0
  5  6  1  0
  6  7  1  0
  6 21  2  0
  7 20  1  0
  7  8  2  0
  8  9  1  0
 10  9  1  1
  9 17  2  0
 10 16  1  0
 10 11  1  0
 14 10  1  6
 11 12  1  0
 11 13  2  3
 15 14  1  6
 16 15  1  1
 17 18  1  0
 18 19  1  0
 18 20  2  0
 21 22  1  0
M  CHG  2   1   1  13   1
M  END
$$$$
