
     RDKit          3D

 22 24  0  0  0  0  0  0  0  0999 V2000
   15.2340   53.9611   67.1180 N   0  0  0  0  0  4  0  0  0  0  0  0
   15.3817   53.0332   68.2784 C   0  0  0  0  0  0  0  0  0  0  0  0
   15.0394   51.6756   67.7640 C   0  0  0  0  0  0  0  0  0  0  0  0
   13.8324   51.0910   68.1020 C   0  0  0  0  0  0  0  0  0  0  0  0
   13.4891   49.8222   67.6339 C   0  0  0  0  0  0  0  0  0  0  0  0
   14.3505   49.1224   66.8210 C   0  0  0  0  0  0  0  0  0  0  0  0
   14.0308   47.7848   66.3057 C   0  0  0  0  0  0  0  0  0  0  0  0
   12.7211   47.3708   66.1436 C   0  0  0  0  0  0  0  0  0  0  0  0
   12.4032   46.1265   65.6645 C   0  0  0  0  0  0  0  0  0  0  0  0
   11.0215   45.6641   65.4749 C   0  0  1  0  0  0  0  0  0  0  0  0
   10.5047   45.5826   64.1134 C   0  0  0  0  0  0  0  0  0  0  0  0
   11.2277   44.7597   63.1600 N   0  0  0  0  0  0  0  0  0  0  0  0
    9.4519   46.1978   63.7525 N   0  0  0  0  0  4  0  0  0  0  0  0
   10.6124   44.4968   66.3436 C   0  0  0  0  0  0  0  0  0  0  0  0
    9.2206   45.1499   66.3459 C   0  0  0  0  0  0  0  0  0  0  0  0
   10.0086   46.4737   66.3405 C   0  0  0  0  0  0  0  0  0  0  0  0
   13.4474   45.2967   65.3477 C   0  0  0  0  0  0  0  0  0  0  0  0
   14.7711   45.6818   65.4988 C   0  0  0  0  0  0  0  0  0  0  0  0
   16.0902   44.6065   65.0882 Cl  0  0  0  0  0  0  0  0  0  0  0  0
   15.0445   46.9183   65.9749 C   0  0  0  0  0  0  0  0  0  0  0  0
   15.5487   49.7090   66.4886 C   0  0  0  0  0  0  0  0  0  0  0  0
   15.9002   50.9752   66.9511 C   0  0  0  0  0  0  0  0  0  0  0  0
  1  2  1  1
  2  3  1  1
  3 22  2  0
  3  4  1  0
  4  5  2  0
  5  6  1  0
  6  7  1  0
  6 21  2  0
  7 20  1  0
  7  8  2  0
  8  9  1  0
 10  9  1  6
  9 17  2  0
 10 16  1  0
 10 11  1  0
 14 10  1  6
 11 12  1  0
 11 13  2  3
 15 14  1  6
 16 15  1  1
 17 18  1  0
 18 19  1  0
 18 20  2  0
 21 22  1  0
M  CHG  2   1   1  13   1
M  END
$$$$
