
     RDKit          3D

 22 24  0  0  0  0  0  0  0  0999 V2000
   22.1698   55.3126   63.4529 N   0  0  0  0  0  4  0  0  0  0  0  0
   22.0256   56.2447   62.2954 C   0  0  0  0  0  0  0  0  0  0  0  0
   22.2510   55.4192   61.0737 C   0  0  0  0  0  0  0  0  0  0  0  0
   21.5576   54.2352   60.9004 C   0  0  0  0  0  0  0  0  0  0  0  0
   21.7507   53.4453   59.7666 C   0  0  0  0  0  0  0  0  0  0  0  0
   22.6411   53.8311   58.7914 C   0  0  0  0  0  0  0  0  0  0  0  0
   22.8764   53.0312   57.5825 C   0  0  0  0  0  0  0  0  0  0  0  0
   23.5898   53.5390   56.5119 C   0  0  0  0  0  0  0  0  0  0  0  0
   23.8192   52.8078   55.3754 C   0  0  0  0  0  0  0  0  0  0  0  0
   24.5801   53.3194   54.2273 C   0  0  1  0  0  0  0  0  0  0  0  0
   26.0254   53.1223   54.2176 C   0  0  0  0  0  0  0  0  0  0  0  0
   26.5566   52.0263   53.4268 N   0  0  0  0  0  0  0  0  0  0  0  0
   26.8147   53.8785   54.8673 N   0  0  0  0  0  4  0  0  0  0  0  0
   23.9342   53.0937   52.8795 C   0  0  0  0  0  0  0  0  0  0  0  0
   24.5734   54.4365   52.4900 C   0  0  0  0  0  0  0  0  0  0  0  0
   24.2848   54.8254   53.9525 C   0  0  0  0  0  0  0  0  0  0  0  0
   23.3076   51.5365   55.3400 C   0  0  0  0  0  0  0  0  0  0  0  0
   22.5882   50.9984   56.3965 C   0  0  0  0  0  0  0  0  0  0  0  0
   21.9433   49.3722   56.3311 Cl  0  0  0  0  0  0  0  0  0  0  0  0
   22.3826   51.7516   57.5015 C   0  0  0  0  0  0  0  0  0  0  0  0
   23.3273   55.0092   58.9696 C   0  0  0  0  0  0  0  0  0  0  0  0
   23.1411   55.8044   60.0982 C   0  0  0  0  0  0  0  0  0  0  0  0
  1  2  1  1
  2  3  1  1
  3 22  2  0
  3  4  1  0
  4  5  2  0
  5  6  1  0
  6  7  1  0
  6 21  2  0
  7 20  1  0
  7  8  2  0
  8  9  1  0
 10  9  1  1
  9 17  2  0
 10 16  1  0
 10 11  1  0
 14 10  1  6
 11 12  1  0
 11 13  2  3
 15 14  1  6
 16 15  1  1
 17 18  1  0
 18 19  1  0
 18 20  2  0
 21 22  1  0
M  CHG  2   1   1  13   1
M  END
$$$$
