
     RDKit          3D

 22 24  0  0  0  0  0  0  0  0999 V2000
   21.3021   36.0526   44.4480 N   0  0  0  0  0  4  0  0  0  0  0  0
   21.9948   37.3737   44.3874 C   0  0  0  0  0  0  0  0  0  0  0  0
   23.0666   37.3227   45.4234 C   0  0  0  0  0  0  0  0  0  0  0  0
   24.0642   38.2805   45.4354 C   0  0  0  0  0  0  0  0  0  0  0  0
   25.0779   38.2545   46.3938 C   0  0  0  0  0  0  0  0  0  0  0  0
   25.1055   37.2686   47.3529 C   0  0  0  0  0  0  0  0  0  0  0  0
   26.1529   37.2021   48.3801 C   0  0  0  0  0  0  0  0  0  0  0  0
   27.3853   37.8008   48.1903 C   0  0  0  0  0  0  0  0  0  0  0  0
   28.3750   37.7492   49.1372 C   0  0  0  0  0  0  0  0  0  0  0  0
   29.6895   38.3827   48.9651 C   0  0  1  0  0  0  0  0  0  0  0  0
   30.8666   37.5225   48.9196 C   0  0  0  0  0  0  0  0  0  0  0  0
   31.3110   36.9126   50.1602 N   0  0  0  0  0  0  0  0  0  0  0  0
   31.4946   37.2935   47.8378 N   0  0  0  0  0  4  0  0  0  0  0  0
   29.7300   39.5098   47.9586 C   0  0  0  0  0  0  0  0  0  0  0  0
   30.7843   40.1325   48.8882 C   0  0  0  0  0  0  0  0  0  0  0  0
   29.9399   39.5077   50.0150 C   0  0  0  0  0  0  0  0  0  0  0  0
   28.0930   37.0722   50.2954 C   0  0  0  0  0  0  0  0  0  0  0  0
   26.8677   36.4613   50.5161 C   0  0  0  0  0  0  0  0  0  0  0  0
   26.5277   35.6015   52.0027 Cl  0  0  0  0  0  0  0  0  0  0  0  0
   25.9159   36.5343   49.5573 C   0  0  0  0  0  0  0  0  0  0  0  0
   24.1109   36.3194   47.3356 C   0  0  0  0  0  0  0  0  0  0  0  0
   23.0948   36.3372   46.3828 C   0  0  0  0  0  0  0  0  0  0  0  0
  1  2  1  1
  2  3  1  1
  3 22  2  0
  3  4  1  0
  4  5  2  0
  5  6  1  0
  6  7  1  0
  6 21  2  0
  7 20  1  0
  7  8  2  0
  8  9  1  0
 10  9  1  1
  9 17  2  0
 10 16  1  0
 10 11  1  0
 14 10  1  6
 11 12  1  0
 11 13  2  3
 15 14  1  6
 16 15  1  1
 17 18  1  0
 18 19  1  0
 18 20  2  0
 21 22  1  0
M  CHG  2   1   1  13   1
M  END
$$$$
