
     RDKit          3D

 22 24  0  0  0  0  0  0  0  0999 V2000
55473.515657509.957017568.3301 N   0  0  0  0  0  4  0  0  0  0  0  0
55472.793057510.386717567.1230 C   0  0  0  0  0  0  0  0  0  0  0  0
55472.148457511.679717567.5000 C   0  0  0  0  0  0  0  0  0  0  0  0
55471.453157512.410217566.5410 C   0  0  0  0  0  0  0  0  0  0  0  0
55470.832057513.628917566.8730 C   0  0  0  0  0  0  0  0  0  0  0  0
55470.898457514.109417568.1621 C   0  0  0  0  0  0  0  0  0  0  0  0
55470.261757515.378917568.5488 C   0  0  0  0  0  0  0  0  0  0  0  0
55470.996157516.425817569.0664 C   0  0  0  0  0  0  0  0  0  0  0  0
55470.418057517.617217569.4258 C   0  0  0  0  0  0  0  0  0  0  0  0
55471.187557518.742217569.9688 C   0  0  1  0  0  0  0  0  0  0  0  0
55470.578157519.527317571.0293 C   0  0  0  0  0  0  0  0  0  0  0  0
55470.816457519.140617572.4082 N   0  0  0  0  0  0  0  0  0  0  0  0
55469.851657520.562517570.7715 N   0  0  0  0  0  4  0  0  0  0  0  0
55472.664157518.484417570.1973 C   0  0  0  0  0  0  0  0  0  0  0  0
55472.867257519.957017569.8184 C   0  0  0  0  0  0  0  0  0  0  0  0
55471.683657519.707017568.8477 C   0  0  0  0  0  0  0  0  0  0  0  0
55469.074257517.734417569.2773 C   0  0  0  0  0  0  0  0  0  0  0  0
55468.296957516.691417568.7617 C   0  0  0  0  0  0  0  0  0  0  0  0
55466.570357516.855517568.5645 Cl  0  0  0  0  0  0  0  0  0  0  0  0
55468.902357515.527317568.4043 C   0  0  0  0  0  0  0  0  0  0  0  0
55471.566457513.367217569.1035 C   0  0  0  0  0  0  0  0  0  0  0  0
55472.195357512.160217568.7852 C   0  0  0  0  0  0  0  0  0  0  0  0
  1  2  1  1
  2  3  1  1
  3 22  2  0
  3  4  1  0
  4  5  2  0
  5  6  1  0
  6  7  1  0
  6 21  2  0
  7 20  1  0
  7  8  2  0
  8  9  1  0
 10  9  1  6
  9 17  2  0
 10 16  1  0
 10 11  1  0
 14 10  1  6
 11 12  1  0
 11 13  2  3
 15 14  1  6
 16 15  1  1
 17 18  1  0
 18 19  1  0
 18 20  2  0
 21 22  1  0
M  CHG  2   1   1  13   1
M  END
$$$$
