
     RDKit          3D

 22 24  0  0  0  0  0  0  0  0999 V2000
-14389.011717825.589817560.4277 N   0  0  0  0  0  4  0  0  0  0  0  0
-14389.216817824.611317559.3242 C   0  0  0  0  0  0  0  0  0  0  0  0
-14388.889617823.279317559.9004 C   0  0  0  0  0  0  0  0  0  0  0  0
-14387.985417823.187517560.9492 C   0  0  0  0  0  0  0  0  0  0  0  0
-14387.665017821.931617561.4980 C   0  0  0  0  0  0  0  0  0  0  0  0
-14388.248017820.787117561.0254 C   0  0  0  0  0  0  0  0  0  0  0  0
-14387.940417819.460917561.5840 C   0  0  0  0  0  0  0  0  0  0  0  0
-14387.790017818.351617560.7598 C   0  0  0  0  0  0  0  0  0  0  0  0
-14387.497117817.107417561.2637 C   0  0  0  0  0  0  0  0  0  0  0  0
-14387.325217815.919917560.4180 C   0  0  1  0  0  0  0  0  0  0  0  0
-14387.507817814.611317561.0352 C   0  0  0  0  0  0  0  0  0  0  0  0
-14386.384817814.029317561.7305 N   0  0  0  0  0  0  0  0  0  0  0  0
-14388.615217813.982417560.9590 N   0  0  0  0  0  4  0  0  0  0  0  0
-14387.921917816.029317559.0293 C   0  0  0  0  0  0  0  0  0  0  0  0
-14386.737317815.152317558.5957 C   0  0  0  0  0  0  0  0  0  0  0  0
-14385.958017815.939517559.6660 C   0  0  0  0  0  0  0  0  0  0  0  0
-14387.363317817.005917562.6230 C   0  0  0  0  0  0  0  0  0  0  0  0
-14387.514617818.089817563.4746 C   0  0  0  0  0  0  0  0  0  0  0  0
-14387.335917817.935517565.2109 Cl  0  0  0  0  0  0  0  0  0  0  0  0
-14387.796917819.302717562.9395 C   0  0  0  0  0  0  0  0  0  0  0  0
-14389.139617820.892617559.9922 C   0  0  0  0  0  0  0  0  0  0  0  0
-14389.470717822.128917559.4277 C   0  0  0  0  0  0  0  0  0  0  0  0
  1  2  1  1
  2  3  1  1
  3 22  2  0
  3  4  1  0
  4  5  2  0
  5  6  1  0
  6  7  1  0
  6 21  2  0
  7 20  1  0
  7  8  2  0
  8  9  1  0
 10  9  1  1
  9 17  2  0
 10 16  1  0
 10 11  1  0
 14 10  1  6
 11 12  1  0
 11 13  2  3
 15 14  1  6
 16 15  1  1
 17 18  1  0
 18 19  1  0
 18 20  2  0
 21 22  1  0
M  CHG  2   1   1  13   1
M  END
$$$$
