
     RDKit          3D

 24 26  0  0  0  0  0  0  0  0999 V2000
   30.4537   48.8595   45.1176 O   0  0  0  0  0  0  0  0  0  0  0  0
   29.6770   47.9264   45.8383 C   0  0  1  0  0  0  0  0  0  0  0  0
   28.3699   47.8057   45.0812 C   0  0  0  0  0  0  0  0  0  0  0  0
   30.4596   46.6327   45.8297 C   0  0  0  0  0  0  0  0  0  0  0  0
   29.4477   48.4589   47.1918 C   0  0  0  0  0  0  0  0  0  0  0  0
   30.3485   49.3016   47.8009 C   0  0  0  0  0  0  0  0  0  0  0  0
   30.0721   49.7708   49.0838 C   0  0  0  0  0  0  0  0  0  0  0  0
   28.9118   49.4125   49.7676 C   0  0  0  0  0  0  0  0  0  0  0  0
   28.6241   49.9033   51.1078 C   0  0  0  0  0  0  0  0  0  0  0  0
   28.6575   51.2674   51.4338 C   0  0  0  0  0  0  0  0  0  0  0  0
   28.3805   51.6974   52.7094 C   0  0  0  0  0  0  0  0  0  0  0  0
   28.3971   53.0990   53.1161 C   0  0  1  0  0  0  0  0  0  0  0  0
   29.7437   53.5884   53.5756 C   0  0  0  0  0  0  0  0  0  0  0  0
   30.3993   54.5319   52.7610 N   0  0  0  0  0  0  0  0  0  0  0  0
   30.2843   53.1879   54.6603 N   0  0  0  0  0  4  0  0  0  0  0  0
   27.7908   54.0998   52.1614 C   0  0  0  0  0  0  0  0  0  0  0  0
   26.4476   53.7885   52.8417 C   0  0  0  0  0  0  0  0  0  0  0  0
   27.2853   53.4770   54.0752 C   0  0  0  0  0  0  0  0  0  0  0  0
   28.0660   50.7237   53.6631 C   0  0  0  0  0  0  0  0  0  0  0  0
   28.0221   49.3797   53.3872 C   0  0  0  0  0  0  0  0  0  0  0  0
   27.6199   48.2084   54.6319 Cl  0  0  0  0  0  0  0  0  0  0  0  0
   28.3077   48.9899   52.0897 C   0  0  0  0  0  0  0  0  0  0  0  0
   28.0242   48.5681   49.1391 C   0  0  0  0  0  0  0  0  0  0  0  0
   28.3072   48.1131   47.8769 C   0  0  0  0  0  0  0  0  0  0  0  0
  2  1  1  6
  3  2  1  1
  4  2  1  1
  2  5  1  0
  5 24  2  0
  5  6  1  0
  6  7  2  0
  7  8  1  0
  8  9  1  0
  8 23  2  0
  9 22  1  0
  9 10  2  0
 10 11  1  0
 12 11  1  6
 11 19  2  0
 12 18  1  0
 12 13  1  0
 16 12  1  6
 13 14  1  0
 13 15  2  3
 17 16  1  6
 18 17  1  1
 19 20  1  0
 20 21  1  0
 20 22  2  0
 23 24  1  0
M  CHG  1  15   1
M  END
$$$$
