
     RDKit          3D

 24 26  0  0  0  0  0  0  0  0999 V2000
   13.3032   39.6654   59.0406 O   0  0  0  0  0  0  0  0  0  0  0  0
   12.7649   40.4811   58.0217 C   0  0  1  0  0  0  0  0  0  0  0  0
   11.3988   39.9040   57.7100 C   0  0  0  0  0  0  0  0  0  0  0  0
   12.6738   41.8740   58.6028 C   0  0  0  0  0  0  0  0  0  0  0  0
   13.6462   40.3978   56.8450 C   0  0  0  0  0  0  0  0  0  0  0  0
   14.2557   39.2202   56.4784 C   0  0  0  0  0  0  0  0  0  0  0  0
   15.0785   39.2084   55.3536 C   0  0  0  0  0  0  0  0  0  0  0  0
   15.3024   40.3524   54.5898 C   0  0  0  0  0  0  0  0  0  0  0  0
   16.1623   40.3388   53.4149 C   0  0  0  0  0  0  0  0  0  0  0  0
   15.9235   41.1526   52.2973 C   0  0  0  0  0  0  0  0  0  0  0  0
   16.7553   41.1153   51.2039 C   0  0  0  0  0  0  0  0  0  0  0  0
   16.5656   41.9334   50.0102 C   0  0  1  0  0  0  0  0  0  0  0  0
   16.1375   41.1559   48.7953 C   0  0  0  0  0  0  0  0  0  0  0  0
   14.7551   40.9635   48.6068 N   0  0  0  0  0  0  0  0  0  0  0  0
   16.9736   40.6899   47.9509 N   0  0  0  0  0  4  0  0  0  0  0  0
   15.7083   43.1687   50.1517 C   0  0  0  0  0  0  0  0  0  0  0  0
   16.9917   43.8901   50.5946 C   0  0  0  0  0  0  0  0  0  0  0  0
   17.7165   42.8764   49.7185 C   0  0  0  0  0  0  0  0  0  0  0  0
   17.8431   40.2373   51.2519 C   0  0  0  0  0  0  0  0  0  0  0  0
   18.1133   39.4242   52.3244 C   0  0  0  0  0  0  0  0  0  0  0  0
   19.4972   38.3435   52.3206 Cl  0  0  0  0  0  0  0  0  0  0  0  0
   17.2502   39.4934   53.4049 C   0  0  0  0  0  0  0  0  0  0  0  0
   14.6824   41.5199   54.9749 C   0  0  0  0  0  0  0  0  0  0  0  0
   13.8751   41.5190   56.0833 C   0  0  0  0  0  0  0  0  0  0  0  0
  2  1  1  1
  3  2  1  1
  4  2  1  1
  2  5  1  0
  5 24  2  0
  5  6  1  0
  6  7  2  0
  7  8  1  0
  8  9  1  0
  8 23  2  0
  9 22  1  0
  9 10  2  0
 10 11  1  0
 12 11  1  1
 11 19  2  0
 12 18  1  0
 12 13  1  0
 16 12  1  6
 13 14  1  0
 13 15  2  3
 17 16  1  6
 18 17  1  1
 19 20  1  0
 20 21  1  0
 20 22  2  0
 23 24  1  0
M  CHG  1  15   1
M  END
$$$$
