
     RDKit          3D

 24 26  0  0  0  0  0  0  0  0999 V2000
   31.2460   40.6676   61.9371 O   0  0  0  0  0  0  0  0  0  0  0  0
   31.6974   40.8622   63.2606 C   0  0  1  0  0  0  0  0  0  0  0  0
   32.7513   39.7992   63.4973 C   0  0  0  0  0  0  0  0  0  0  0  0
   32.2782   42.2575   63.3056 C   0  0  0  0  0  0  0  0  0  0  0  0
   30.5567   40.6768   64.1731 C   0  0  0  0  0  0  0  0  0  0  0  0
   29.2827   40.4544   63.7041 C   0  0  0  0  0  0  0  0  0  0  0  0
   28.2463   40.2871   64.6207 C   0  0  0  0  0  0  0  0  0  0  0  0
   28.4613   40.3381   65.9967 C   0  0  0  0  0  0  0  0  0  0  0  0
   27.3778   40.1631   66.9534 C   0  0  0  0  0  0  0  0  0  0  0  0
   27.5252   40.4485   68.3190 C   0  0  0  0  0  0  0  0  0  0  0  0
   26.4816   40.2721   69.1958 C   0  0  0  0  0  0  0  0  0  0  0  0
   26.5663   40.5491   70.6262 C   0  0  1  0  0  0  0  0  0  0  0  0
   27.4920   39.6294   71.3753 C   0  0  0  0  0  0  0  0  0  0  0  0
   28.8051   40.0836   71.6056 N   0  0  0  0  0  0  0  0  0  0  0  0
   27.1220   38.4854   71.8036 N   0  0  0  0  0  4  0  0  0  0  0  0
   26.8284   41.9788   71.0360 C   0  0  0  0  0  0  0  0  0  0  0  0
   25.3057   42.1771   70.9606 C   0  0  0  0  0  0  0  0  0  0  0  0
   25.2199   40.6963   71.3076 C   0  0  0  0  0  0  0  0  0  0  0  0
   25.2738   39.7989   68.6724 C   0  0  0  0  0  0  0  0  0  0  0  0
   25.0865   39.5074   67.3441 C   0  0  0  0  0  0  0  0  0  0  0  0
   23.5431   38.9160   66.7516 Cl  0  0  0  0  0  0  0  0  0  0  0  0
   26.1637   39.6994   66.4956 C   0  0  0  0  0  0  0  0  0  0  0  0
   29.7442   40.5617   66.4439 C   0  0  0  0  0  0  0  0  0  0  0  0
   30.7555   40.7249   65.5324 C   0  0  0  0  0  0  0  0  0  0  0  0
  2  1  1  6
  3  2  1  1
  4  2  1  1
  2  5  1  0
  5 24  2  0
  5  6  1  0
  6  7  2  0
  7  8  1  0
  8  9  1  0
  8 23  2  0
  9 22  1  0
  9 10  2  0
 10 11  1  0
 12 11  1  6
 11 19  2  0
 12 18  1  0
 12 13  1  0
 16 12  1  6
 13 14  1  0
 13 15  2  3
 17 16  1  6
 18 17  1  1
 19 20  1  0
 20 21  1  0
 20 22  2  0
 23 24  1  0
M  CHG  1  15   1
M  END
$$$$
