
     RDKit          3D

 24 26  0  0  0  0  0  0  0  0999 V2000
   14.9818   40.9412   55.6752 O   0  0  0  0  0  0  0  0  0  0  0  0
   16.2317   40.2992   55.5374 C   0  0  1  0  0  0  0  0  0  0  0  0
   15.9211   38.8804   55.1048 C   0  0  0  0  0  0  0  0  0  0  0  0
   16.9827   41.0660   54.4724 C   0  0  0  0  0  0  0  0  0  0  0  0
   16.9062   40.3086   56.8462 C   0  0  0  0  0  0  0  0  0  0  0  0
   16.2704   40.7447   57.9856 C   0  0  0  0  0  0  0  0  0  0  0  0
   16.9650   40.7284   59.1937 C   0  0  0  0  0  0  0  0  0  0  0  0
   18.2830   40.2841   59.2824 C   0  0  0  0  0  0  0  0  0  0  0  0
   19.0076   40.2675   60.5451 C   0  0  0  0  0  0  0  0  0  0  0  0
   18.5979   41.0159   61.6587 C   0  0  0  0  0  0  0  0  0  0  0  0
   19.3052   40.9776   62.8365 C   0  0  0  0  0  0  0  0  0  0  0  0
   18.9354   41.7298   64.0313 C   0  0  1  0  0  0  0  0  0  0  0  0
   19.7020   43.0120   64.2107 C   0  0  0  0  0  0  0  0  0  0  0  0
   20.7446   43.0130   65.1575 N   0  0  0  0  0  0  0  0  0  0  0  0
   19.4435   44.0644   63.5364 N   0  0  0  0  0  4  0  0  0  0  0  0
   17.4636   41.9812   64.2581 C   0  0  0  0  0  0  0  0  0  0  0  0
   17.4375   40.6131   64.9591 C   0  0  0  0  0  0  0  0  0  0  0  0
   18.8953   40.8970   65.2977 C   0  0  0  0  0  0  0  0  0  0  0  0
   20.4436   40.1661   62.8779 C   0  0  0  0  0  0  0  0  0  0  0  0
   20.8796   39.4180   61.8126 C   0  0  0  0  0  0  0  0  0  0  0  0
   22.3187   38.4191   61.9310 Cl  0  0  0  0  0  0  0  0  0  0  0  0
   20.1378   39.4857   60.6454 C   0  0  0  0  0  0  0  0  0  0  0  0
   18.8998   39.8521   58.1297 C   0  0  0  0  0  0  0  0  0  0  0  0
   18.2061   39.8730   56.9471 C   0  0  0  0  0  0  0  0  0  0  0  0
  2  1  1  1
  3  2  1  1
  4  2  1  1
  2  5  1  0
  5 24  2  0
  5  6  1  0
  6  7  2  0
  7  8  1  0
  8  9  1  0
  8 23  2  0
  9 22  1  0
  9 10  2  0
 10 11  1  0
 12 11  1  6
 11 19  2  0
 12 18  1  0
 12 13  1  0
 16 12  1  6
 13 14  1  0
 13 15  2  3
 17 16  1  6
 18 17  1  1
 19 20  1  0
 20 21  1  0
 20 22  2  0
 23 24  1  0
M  CHG  1  15   1
M  END
$$$$
