
     RDKit          3D

 24 26  0  0  0  0  0  0  0  0999 V2000
   21.8444   47.7649   45.5719 O   0  0  0  0  0  0  0  0  0  0  0  0
   22.8187   48.0965   44.6053 C   0  0  1  0  0  0  0  0  0  0  0  0
   22.6074   47.1291   43.4582 C   0  0  0  0  0  0  0  0  0  0  0  0
   22.5397   49.5264   44.2009 C   0  0  0  0  0  0  0  0  0  0  0  0
   24.1507   47.9104   45.2048 C   0  0  0  0  0  0  0  0  0  0  0  0
   24.3567   47.0519   46.2598 C   0  0  0  0  0  0  0  0  0  0  0  0
   25.6423   46.9212   46.7819 C   0  0  0  0  0  0  0  0  0  0  0  0
   26.7244   47.6333   46.2679 C   0  0  0  0  0  0  0  0  0  0  0  0
   28.0671   47.4960   46.8141 C   0  0  0  0  0  0  0  0  0  0  0  0
   29.0420   48.4954   46.6767 C   0  0  0  0  0  0  0  0  0  0  0  0
   30.3006   48.3339   47.2046 C   0  0  0  0  0  0  0  0  0  0  0  0
   31.3606   49.3315   47.0984 C   0  0  1  0  0  0  0  0  0  0  0  0
   30.8627   50.7487   47.0110 C   0  0  0  0  0  0  0  0  0  0  0  0
   30.6391   51.2755   45.7242 N   0  0  0  0  0  0  0  0  0  0  0  0
   30.6347   51.4595   48.0464 N   0  0  0  0  0  4  0  0  0  0  0  0
   32.4863   49.2489   48.1018 C   0  0  0  0  0  0  0  0  0  0  0  0
   33.1493   48.2588   47.1303 C   0  0  0  0  0  0  0  0  0  0  0  0
   32.4011   49.0170   46.0415 C   0  0  0  0  0  0  0  0  0  0  0  0
   30.5669   47.1385   47.8804 C   0  0  0  0  0  0  0  0  0  0  0  0
   29.6430   46.1355   48.0378 C   0  0  0  0  0  0  0  0  0  0  0  0
   30.0424   44.6579   48.8981 Cl  0  0  0  0  0  0  0  0  0  0  0  0
   28.3876   46.3392   47.4905 C   0  0  0  0  0  0  0  0  0  0  0  0
   26.4954   48.4869   45.2120 C   0  0  0  0  0  0  0  0  0  0  0  0
   25.2262   48.6069   44.7070 C   0  0  0  0  0  0  0  0  0  0  0  0
  2  1  1  1
  3  2  1  1
  4  2  1  1
  2  5  1  0
  5 24  2  0
  5  6  1  0
  6  7  2  0
  7  8  1  0
  8  9  1  0
  8 23  2  0
  9 22  1  0
  9 10  2  0
 10 11  1  0
 12 11  1  1
 11 19  2  0
 12 18  1  0
 12 13  1  0
 16 12  1  6
 13 14  1  0
 13 15  2  3
 17 16  1  6
 18 17  1  1
 19 20  1  0
 20 21  1  0
 20 22  2  0
 23 24  1  0
M  CHG  1  15   1
M  END
$$$$
