
     RDKit          3D

 24 26  0  0  0  0  0  0  0  0999 V2000
   30.8305   40.3382   63.8856 O   0  0  0  0  0  0  0  0  0  0  0  0
   29.6569   39.6009   63.6167 C   0  0  1  0  0  0  0  0  0  0  0  0
   29.0568   40.2208   62.3709 C   0  0  0  0  0  0  0  0  0  0  0  0
   30.1010   38.1745   63.3836 C   0  0  0  0  0  0  0  0  0  0  0  0
   28.7435   39.7462   64.7624 C   0  0  0  0  0  0  0  0  0  0  0  0
   28.6497   40.9227   65.4693 C   0  0  0  0  0  0  0  0  0  0  0  0
   27.7654   40.9951   66.5441 C   0  0  0  0  0  0  0  0  0  0  0  0
   26.9740   39.9128   66.9240 C   0  0  0  0  0  0  0  0  0  0  0  0
   26.0504   39.9895   68.0469 C   0  0  0  0  0  0  0  0  0  0  0  0
   26.4128   40.5438   69.2837 C   0  0  0  0  0  0  0  0  0  0  0  0
   25.5162   40.6009   70.3238 C   0  0  0  0  0  0  0  0  0  0  0  0
   25.8267   41.1632   71.6344 C   0  0  1  0  0  0  0  0  0  0  0  0
   26.8041   40.3472   72.4360 C   0  0  0  0  0  0  0  0  0  0  0  0
   26.2920   39.2482   73.1525 N   0  0  0  0  0  0  0  0  0  0  0  0
   28.0518   40.6142   72.4717 N   0  0  0  0  0  4  0  0  0  0  0  0
   26.2208   42.6203   71.6822 C   0  0  0  0  0  0  0  0  0  0  0  0
   24.7161   42.9238   71.7695 C   0  0  0  0  0  0  0  0  0  0  0  0
   24.6058   41.5609   72.4407 C   0  0  0  0  0  0  0  0  0  0  0  0
   24.2352   40.0862   70.0987 C   0  0  0  0  0  0  0  0  0  0  0  0
   23.8392   39.5356   68.9052 C   0  0  0  0  0  0  0  0  0  0  0  0
   22.2143   38.9067   68.6885 Cl  0  0  0  0  0  0  0  0  0  0  0  0
   24.7735   39.4980   67.8841 C   0  0  0  0  0  0  0  0  0  0  0  0
   27.0839   38.7452   66.2025 C   0  0  0  0  0  0  0  0  0  0  0  0
   27.9574   38.6862   65.1472 C   0  0  0  0  0  0  0  0  0  0  0  0
  2  1  1  1
  3  2  1  1
  4  2  1  1
  2  5  1  0
  5 24  2  0
  5  6  1  0
  6  7  2  0
  7  8  1  0
  8  9  1  0
  8 23  2  0
  9 22  1  0
  9 10  2  0
 10 11  1  0
 12 11  1  6
 11 19  2  0
 12 18  1  0
 12 13  1  0
 16 12  1  6
 13 14  1  0
 13 15  2  3
 17 16  1  6
 18 17  1  1
 19 20  1  0
 20 21  1  0
 20 22  2  0
 23 24  1  0
M  CHG  1  15   1
M  END
$$$$
