
     RDKit          3D

 24 26  0  0  0  0  0  0  0  0999 V2000
   20.7751   40.8383   68.2002 O   0  0  0  0  0  0  0  0  0  0  0  0
   21.5060   40.7637   69.4058 C   0  0  1  0  0  0  0  0  0  0  0  0
   22.1764   39.4047   69.3983 C   0  0  0  0  0  0  0  0  0  0  0  0
   22.5106   41.8927   69.3586 C   0  0  0  0  0  0  0  0  0  0  0  0
   20.5611   40.8720   70.5300 C   0  0  0  0  0  0  0  0  0  0  0  0
   19.2275   40.5660   70.3873 C   0  0  0  0  0  0  0  0  0  0  0  0
   18.3854   40.6897   71.4908 C   0  0  0  0  0  0  0  0  0  0  0  0
   18.8530   41.1135   72.7334 C   0  0  0  0  0  0  0  0  0  0  0  0
   17.9723   41.2423   73.8857 C   0  0  0  0  0  0  0  0  0  0  0  0
   18.4516   41.2392   75.2042 C   0  0  0  0  0  0  0  0  0  0  0  0
   17.5926   41.3628   76.2699 C   0  0  0  0  0  0  0  0  0  0  0  0
   18.0232   41.3672   77.6644 C   0  0  1  0  0  0  0  0  0  0  0  0
   18.2980   42.7394   78.2172 C   0  0  0  0  0  0  0  0  0  0  0  0
   19.2722   43.5161   77.5605 N   0  0  0  0  0  0  0  0  0  0  0  0
   17.6787   43.2058   79.2312 N   0  0  0  0  0  4  0  0  0  0  0  0
   17.1859   40.5819   78.6457 C   0  0  0  0  0  0  0  0  0  0  0  0
   18.0425   39.3666   78.2546 C   0  0  0  0  0  0  0  0  0  0  0  0
   19.1380   40.3859   77.9698 C   0  0  0  0  0  0  0  0  0  0  0  0
   16.2289   41.4909   75.9864 C   0  0  0  0  0  0  0  0  0  0  0  0
   15.7177   41.4988   74.7123 C   0  0  0  0  0  0  0  0  0  0  0  0
   13.9934   41.6632   74.4253 Cl  0  0  0  0  0  0  0  0  0  0  0  0
   16.6179   41.3718   73.6680 C   0  0  0  0  0  0  0  0  0  0  0  0
   20.1913   41.4144   72.8536 C   0  0  0  0  0  0  0  0  0  0  0  0
   21.0098   41.2889   71.7607 C   0  0  0  0  0  0  0  0  0  0  0  0
  2  1  1  6
  3  2  1  1
  4  2  1  1
  2  5  1  0
  5 24  2  0
  5  6  1  0
  6  7  2  0
  7  8  1  0
  8  9  1  0
  8 23  2  0
  9 22  1  0
  9 10  2  0
 10 11  1  0
 12 11  1  6
 11 19  2  0
 12 18  1  0
 12 13  1  0
 16 12  1  6
 13 14  1  0
 13 15  2  3
 17 16  1  6
 18 17  1  1
 19 20  1  0
 20 21  1  0
 20 22  2  0
 23 24  1  0
M  CHG  1  15   1
M  END
$$$$
