
     RDKit          3D

 24 26  0  0  0  0  0  0  0  0999 V2000
   21.7460   39.4268   70.9267 O   0  0  0  0  0  0  0  0  0  0  0  0
   22.1266   40.3427   69.9220 C   0  0  1  0  0  0  0  0  0  0  0  0
   21.0241   40.2971   68.8833 C   0  0  0  0  0  0  0  0  0  0  0  0
   22.2158   41.6931   70.5963 C   0  0  0  0  0  0  0  0  0  0  0  0
   23.4050   39.8949   69.3445 C   0  0  0  0  0  0  0  0  0  0  0  0
   24.1285   38.8642   69.8983 C   0  0  0  0  0  0  0  0  0  0  0  0
   25.3314   38.4887   69.3032 C   0  0  0  0  0  0  0  0  0  0  0  0
   25.8231   39.1251   68.1650 C   0  0  0  0  0  0  0  0  0  0  0  0
   27.0800   38.7319   67.5441 C   0  0  0  0  0  0  0  0  0  0  0  0
   27.7611   39.5552   66.6351 C   0  0  0  0  0  0  0  0  0  0  0  0
   28.9462   39.1535   66.0667 C   0  0  0  0  0  0  0  0  0  0  0  0
   29.7054   39.9590   65.1155 C   0  0  1  0  0  0  0  0  0  0  0  0
   30.8437   40.7258   65.7321 C   0  0  0  0  0  0  0  0  0  0  0  0
   32.0401   40.0225   65.9719 N   0  0  0  0  0  0  0  0  0  0  0  0
   30.7557   41.9652   66.0242 N   0  0  0  0  0  4  0  0  0  0  0  0
   30.1778   39.2729   63.8557 C   0  0  0  0  0  0  0  0  0  0  0  0
   28.8075   39.6359   63.2605 C   0  0  0  0  0  0  0  0  0  0  0  0
   28.8460   40.8234   64.2138 C   0  0  0  0  0  0  0  0  0  0  0  0
   29.4415   37.8970   66.4304 C   0  0  0  0  0  0  0  0  0  0  0  0
   28.8078   37.0602   67.3152 C   0  0  0  0  0  0  0  0  0  0  0  0
   29.4843   35.4938   67.7293 Cl  0  0  0  0  0  0  0  0  0  0  0  0
   27.6168   37.5040   67.8644 C   0  0  0  0  0  0  0  0  0  0  0  0
   25.0827   40.1540   67.6274 C   0  0  0  0  0  0  0  0  0  0  0  0
   23.9008   40.5144   68.2219 C   0  0  0  0  0  0  0  0  0  0  0  0
  2  1  1  1
  3  2  1  1
  4  2  1  1
  2  5  1  0
  5 24  2  0
  5  6  1  0
  6  7  2  0
  7  8  1  0
  8  9  1  0
  8 23  2  0
  9 22  1  0
  9 10  2  0
 10 11  1  0
 12 11  1  1
 11 19  2  0
 12 18  1  0
 12 13  1  0
 16 12  1  6
 13 14  1  0
 13 15  2  3
 17 16  1  6
 18 17  1  1
 19 20  1  0
 20 21  1  0
 20 22  2  0
 23 24  1  0
M  CHG  1  15   1
M  END
$$$$
