
     RDKit          3D

 24 26  0  0  0  0  0  0  0  0999 V2000
    8.5030   45.9953   66.7809 O   0  0  0  0  0  0  0  0  0  0  0  0
    8.7189   45.3863   65.5256 C   0  0  1  0  0  0  0  0  0  0  0  0
    7.6864   44.2822   65.4198 C   0  0  0  0  0  0  0  0  0  0  0  0
    8.5019   46.4676   64.4912 C   0  0  0  0  0  0  0  0  0  0  0  0
   10.0815   44.8285   65.5074 C   0  0  0  0  0  0  0  0  0  0  0  0
   11.0312   45.2064   66.4283 C   0  0  0  0  0  0  0  0  0  0  0  0
   12.3029   44.6408   66.3564 C   0  0  0  0  0  0  0  0  0  0  0  0
   12.6413   43.7050   65.3808 C   0  0  0  0  0  0  0  0  0  0  0  0
   13.9702   43.1147   65.3067 C   0  0  0  0  0  0  0  0  0  0  0  0
   14.4697   42.5285   64.1341 C   0  0  0  0  0  0  0  0  0  0  0  0
   15.7294   41.9799   64.0980 C   0  0  0  0  0  0  0  0  0  0  0  0
   16.3101   41.3553   62.9136 C   0  0  1  0  0  0  0  0  0  0  0  0
   15.4791   41.5096   61.6688 C   0  0  0  0  0  0  0  0  0  0  0  0
   15.5953   42.7222   60.9620 N   0  0  0  0  0  0  0  0  0  0  0  0
   14.7024   40.5894   61.2456 N   0  0  0  0  0  4  0  0  0  0  0  0
   17.7533   41.6752   62.6046 C   0  0  0  0  0  0  0  0  0  0  0  0
   18.1109   40.5135   63.5461 C   0  0  0  0  0  0  0  0  0  0  0  0
   16.7681   39.9263   63.1307 C   0  0  0  0  0  0  0  0  0  0  0  0
   16.4876   42.0304   65.2723 C   0  0  0  0  0  0  0  0  0  0  0  0
   16.0380   42.5940   66.4405 C   0  0  0  0  0  0  0  0  0  0  0  0
   17.0416   42.6244   67.8808 Cl  0  0  0  0  0  0  0  0  0  0  0  0
   14.7635   43.1351   66.4331 C   0  0  0  0  0  0  0  0  0  0  0  0
   11.6754   43.3413   64.4694 C   0  0  0  0  0  0  0  0  0  0  0  0
   10.4279   43.9047   64.5503 C   0  0  0  0  0  0  0  0  0  0  0  0
  2  1  1  1
  3  2  1  1
  4  2  1  1
  2  5  1  0
  5 24  2  0
  5  6  1  0
  6  7  2  0
  7  8  1  0
  8  9  1  0
  8 23  2  0
  9 22  1  0
  9 10  2  0
 10 11  1  0
 12 11  1  1
 11 19  2  0
 12 18  1  0
 12 13  1  0
 16 12  1  6
 13 14  1  0
 13 15  2  3
 17 16  1  6
 18 17  1  1
 19 20  1  0
 20 21  1  0
 20 22  2  0
 23 24  1  0
M  CHG  1  15   1
M  END
$$$$
