
     RDKit          3D

 24 26  0  0  0  0  0  0  0  0999 V2000
   10.9079   41.3546   62.5874 O   0  0  0  0  0  0  0  0  0  0  0  0
   11.6214   42.5309   62.2703 C   0  0  1  0  0  0  0  0  0  0  0  0
   10.5727   43.6021   62.0482 C   0  0  0  0  0  0  0  0  0  0  0  0
   12.4930   42.8296   63.4691 C   0  0  0  0  0  0  0  0  0  0  0  0
   12.3897   42.2908   61.0374 C   0  0  0  0  0  0  0  0  0  0  0  0
   12.2383   43.0839   59.9235 C   0  0  0  0  0  0  0  0  0  0  0  0
   12.9957   42.8032   58.7878 C   0  0  0  0  0  0  0  0  0  0  0  0
   13.9009   41.7445   58.7463 C   0  0  0  0  0  0  0  0  0  0  0  0
   14.6917   41.4522   57.5592 C   0  0  0  0  0  0  0  0  0  0  0  0
   14.1696   41.5583   56.2614 C   0  0  0  0  0  0  0  0  0  0  0  0
   14.9436   41.2748   55.1617 C   0  0  0  0  0  0  0  0  0  0  0  0
   14.4646   41.3645   53.7859 C   0  0  1  0  0  0  0  0  0  0  0  0
   14.4756   42.7595   53.2222 C   0  0  0  0  0  0  0  0  0  0  0  0
   13.2307   43.3950   53.0492 N   0  0  0  0  0  0  0  0  0  0  0  0
   15.5562   43.3661   52.9165 N   0  0  0  0  0  4  0  0  0  0  0  0
   15.0649   40.4065   52.7845 C   0  0  0  0  0  0  0  0  0  0  0  0
   13.9791   39.4134   53.2300 C   0  0  0  0  0  0  0  0  0  0  0  0
   13.1488   40.6517   53.5423 C   0  0  0  0  0  0  0  0  0  0  0  0
   16.2655   40.8785   55.3894 C   0  0  0  0  0  0  0  0  0  0  0  0
   16.8161   40.7617   56.6415 C   0  0  0  0  0  0  0  0  0  0  0  0
   18.4843   40.2585   56.8581 Cl  0  0  0  0  0  0  0  0  0  0  0  0
   16.0016   41.0568   57.7216 C   0  0  0  0  0  0  0  0  0  0  0  0
   14.0364   40.9637   59.8724 C   0  0  0  0  0  0  0  0  0  0  0  0
   13.2858   41.2498   60.9837 C   0  0  0  0  0  0  0  0  0  0  0  0
  2  1  1  1
  3  2  1  1
  4  2  1  1
  2  5  1  0
  5 24  2  0
  5  6  1  0
  6  7  2  0
  7  8  1  0
  8  9  1  0
  8 23  2  0
  9 22  1  0
  9 10  2  0
 10 11  1  0
 12 11  1  1
 11 19  2  0
 12 18  1  0
 12 13  1  0
 16 12  1  6
 13 14  1  0
 13 15  2  3
 17 16  1  6
 18 17  1  1
 19 20  1  0
 20 21  1  0
 20 22  2  0
 23 24  1  0
M  CHG  1  15   1
M  END
$$$$
