
     RDKit          3D

 24 26  0  0  0  0  0  0  0  0999 V2000
   38.2555   47.1598   63.4911 O   0  0  0  0  0  0  0  0  0  0  0  0
   37.2126   46.3756   62.9520 C   0  0  1  0  0  0  0  0  0  0  0  0
   37.6023   46.1042   61.5129 C   0  0  0  0  0  0  0  0  0  0  0  0
   37.1695   45.1092   63.7770 C   0  0  0  0  0  0  0  0  0  0  0  0
   35.9646   47.1544   63.0155 C   0  0  0  0  0  0  0  0  0  0  0  0
   34.9790   46.8698   63.9322 C   0  0  0  0  0  0  0  0  0  0  0  0
   33.8211   47.6452   63.9401 C   0  0  0  0  0  0  0  0  0  0  0  0
   33.6314   48.6992   63.0482 C   0  0  0  0  0  0  0  0  0  0  0  0
   32.4212   49.5086   63.0574 C   0  0  0  0  0  0  0  0  0  0  0  0
   32.3685   50.7912   62.4913 C   0  0  0  0  0  0  0  0  0  0  0  0
   31.2094   51.5292   62.5169 C   0  0  0  0  0  0  0  0  0  0  0  0
   31.0853   52.8674   61.9478 C   0  0  1  0  0  0  0  0  0  0  0  0
   31.3571   53.9778   62.9262 C   0  0  0  0  0  0  0  0  0  0  0  0
   31.5899   53.6136   64.2666 N   0  0  0  0  0  0  0  0  0  0  0  0
   31.3912   55.2050   62.5770 N   0  0  0  0  0  4  0  0  0  0  0  0
   31.8199   53.1367   60.6560 C   0  0  0  0  0  0  0  0  0  0  0  0
   30.5739   52.5830   59.9455 C   0  0  0  0  0  0  0  0  0  0  0  0
   29.8079   53.0881   61.1615 C   0  0  0  0  0  0  0  0  0  0  0  0
   30.0915   50.9514   63.1275 C   0  0  0  0  0  0  0  0  0  0  0  0
   30.0993   49.7006   63.6931 C   0  0  0  0  0  0  0  0  0  0  0  0
   28.6596   49.0332   64.4446 Cl  0  0  0  0  0  0  0  0  0  0  0  0
   31.2875   48.9914   63.6453 C   0  0  0  0  0  0  0  0  0  0  0  0
   34.6307   48.9663   62.1393 C   0  0  0  0  0  0  0  0  0  0  0  0
   35.7653   48.1964   62.1414 C   0  0  0  0  0  0  0  0  0  0  0  0
  2  1  1  1
  3  2  1  1
  4  2  1  1
  2  5  1  0
  5 24  2  0
  5  6  1  0
  6  7  2  0
  7  8  1  0
  8  9  1  0
  8 23  2  0
  9 22  1  0
  9 10  2  0
 10 11  1  0
 12 11  1  1
 11 19  2  0
 12 18  1  0
 12 13  1  0
 16 12  1  6
 13 14  1  0
 13 15  2  3
 17 16  1  6
 18 17  1  1
 19 20  1  0
 20 21  1  0
 20 22  2  0
 23 24  1  0
M  CHG  1  15   1
M  END
$$$$
