
     RDKit          3D

 24 26  0  0  0  0  0  0  0  0999 V2000
   21.3702   41.3140   69.7641 O   0  0  0  0  0  0  0  0  0  0  0  0
   22.1520   40.2962   70.3525 C   0  0  1  0  0  0  0  0  0  0  0  0
   22.6487   40.8651   71.6663 C   0  0  0  0  0  0  0  0  0  0  0  0
   21.2247   39.1197   70.5576 C   0  0  0  0  0  0  0  0  0  0  0  0
   23.2802   39.9984   69.4543 C   0  0  0  0  0  0  0  0  0  0  0  0
   23.1368   40.0004   68.0861 C   0  0  0  0  0  0  0  0  0  0  0  0
   24.2443   39.7100   67.2915 C   0  0  0  0  0  0  0  0  0  0  0  0
   25.4915   39.4180   67.8405 C   0  0  0  0  0  0  0  0  0  0  0  0
   26.6479   39.1148   67.0094 C   0  0  0  0  0  0  0  0  0  0  0  0
   27.8208   38.5467   67.5289 C   0  0  0  0  0  0  0  0  0  0  0  0
   28.8948   38.2729   66.7163 C   0  0  0  0  0  0  0  0  0  0  0  0
   30.1429   37.6833   67.1902 C   0  0  1  0  0  0  0  0  0  0  0  0
   31.0895   38.6715   67.8158 C   0  0  0  0  0  0  0  0  0  0  0  0
   31.0510   38.8029   69.2175 N   0  0  0  0  0  0  0  0  0  0  0  0
   31.9098   39.3649   67.1263 N   0  0  0  0  0  4  0  0  0  0  0  0
   30.0361   36.4571   68.0654 C   0  0  0  0  0  0  0  0  0  0  0  0
   30.0037   35.6471   66.7591 C   0  0  0  0  0  0  0  0  0  0  0  0
   30.8274   36.7880   66.1758 C   0  0  0  0  0  0  0  0  0  0  0  0
   28.7701   38.5827   65.3580 C   0  0  0  0  0  0  0  0  0  0  0  0
   27.6417   39.1388   64.8085 C   0  0  0  0  0  0  0  0  0  0  0  0
   27.5503   39.5037   63.0934 Cl  0  0  0  0  0  0  0  0  0  0  0  0
   26.5833   39.3984   65.6626 C   0  0  0  0  0  0  0  0  0  0  0  0
   25.6123   39.4217   69.2121 C   0  0  0  0  0  0  0  0  0  0  0  0
   24.5155   39.7088   69.9833 C   0  0  0  0  0  0  0  0  0  0  0  0
  2  1  1  6
  3  2  1  1
  4  2  1  1
  2  5  1  0
  5 24  2  0
  5  6  1  0
  6  7  2  0
  7  8  1  0
  8  9  1  0
  8 23  2  0
  9 22  1  0
  9 10  2  0
 10 11  1  0
 12 11  1  6
 11 19  2  0
 12 18  1  0
 12 13  1  0
 16 12  1  6
 13 14  1  0
 13 15  2  3
 17 16  1  6
 18 17  1  1
 19 20  1  0
 20 21  1  0
 20 22  2  0
 23 24  1  0
M  CHG  1  15   1
M  END
$$$$
