
     RDKit          3D

 24 26  0  0  0  0  0  0  0  0999 V2000
   27.0774   42.0776   38.9848 O   0  0  0  0  0  0  0  0  0  0  0  0
   26.4450   43.3039   39.2838 C   0  0  1  0  0  0  0  0  0  0  0  0
   26.6287   44.1728   38.0559 C   0  0  0  0  0  0  0  0  0  0  0  0
   24.9905   42.9763   39.5351 C   0  0  0  0  0  0  0  0  0  0  0  0
   27.1169   43.9016   40.4498 C   0  0  0  0  0  0  0  0  0  0  0  0
   27.7949   43.1331   41.3677 C   0  0  0  0  0  0  0  0  0  0  0  0
   28.4095   43.7605   42.4498 C   0  0  0  0  0  0  0  0  0  0  0  0
   28.3581   45.1415   42.6300 C   0  0  0  0  0  0  0  0  0  0  0  0
   29.0006   45.7959   43.7608 C   0  0  0  0  0  0  0  0  0  0  0  0
   28.8462   47.1649   44.0262 C   0  0  0  0  0  0  0  0  0  0  0  0
   29.4670   47.7516   45.1029 C   0  0  0  0  0  0  0  0  0  0  0  0
   29.3494   49.1676   45.4364 C   0  0  1  0  0  0  0  0  0  0  0  0
   29.7747   50.0956   44.3310 C   0  0  0  0  0  0  0  0  0  0  0  0
   31.0506   49.8899   43.7714 N   0  0  0  0  0  0  0  0  0  0  0  0
   29.0232   51.0304   43.8945 N   0  0  0  0  0  4  0  0  0  0  0  0
   28.0325   49.6319   46.0118 C   0  0  0  0  0  0  0  0  0  0  0  0
   28.6002   49.2278   47.3823 C   0  0  0  0  0  0  0  0  0  0  0  0
   29.9608   49.5402   46.7728 C   0  0  0  0  0  0  0  0  0  0  0  0
   30.2544   46.9316   45.9177 C   0  0  0  0  0  0  0  0  0  0  0  0
   30.4324   45.5888   45.6946 C   0  0  0  0  0  0  0  0  0  0  0  0
   31.4352   44.6153   46.7573 Cl  0  0  0  0  0  0  0  0  0  0  0  0
   29.7890   45.0382   44.5991 C   0  0  0  0  0  0  0  0  0  0  0  0
   27.6742   45.8912   41.6992 C   0  0  0  0  0  0  0  0  0  0  0  0
   27.0736   45.2624   40.6389 C   0  0  0  0  0  0  0  0  0  0  0  0
  2  1  1  6
  3  2  1  1
  4  2  1  1
  2  5  1  0
  5 24  2  0
  5  6  1  0
  6  7  2  0
  7  8  1  0
  8  9  1  0
  8 23  2  0
  9 22  1  0
  9 10  2  0
 10 11  1  0
 12 11  1  6
 11 19  2  0
 12 18  1  0
 12 13  1  0
 16 12  1  6
 13 14  1  0
 13 15  2  3
 17 16  1  6
 18 17  1  1
 19 20  1  0
 20 21  1  0
 20 22  2  0
 23 24  1  0
M  CHG  1  15   1
M  END
$$$$
