
     RDKit          3D

 24 26  0  0  0  0  0  0  0  0999 V2000
   23.8669   45.9381   46.9412 O   0  0  0  0  0  0  0  0  0  0  0  0
   24.2456   47.2284   47.3714 C   0  0  1  0  0  0  0  0  0  0  0  0
   23.4806   48.1972   46.4924 C   0  0  0  0  0  0  0  0  0  0  0  0
   23.8289   47.3269   48.8215 C   0  0  0  0  0  0  0  0  0  0  0  0
   25.6967   47.3782   47.1713 C   0  0  0  0  0  0  0  0  0  0  0  0
   26.2317   48.4802   46.5453 C   0  0  0  0  0  0  0  0  0  0  0  0
   27.6140   48.5612   46.3870 C   0  0  0  0  0  0  0  0  0  0  0  0
   28.4699   47.5605   46.8434 C   0  0  0  0  0  0  0  0  0  0  0  0
   29.9138   47.6462   46.6776 C   0  0  0  0  0  0  0  0  0  0  0  0
   30.5844   48.8703   46.5354 C   0  0  0  0  0  0  0  0  0  0  0  0
   31.9493   48.9159   46.3806 C   0  0  0  0  0  0  0  0  0  0  0  0
   32.7089   50.1527   46.2277 C   0  0  1  0  0  0  0  0  0  0  0  0
   32.6754   50.7253   44.8367 C   0  0  0  0  0  0  0  0  0  0  0  0
   33.3577   50.0146   43.8302 N   0  0  0  0  0  0  0  0  0  0  0  0
   32.0520   51.8027   44.5544 N   0  0  0  0  0  4  0  0  0  0  0  0
   32.4504   51.2480   47.2349 C   0  0  0  0  0  0  0  0  0  0  0  0
   33.5094   50.5587   48.1108 C   0  0  0  0  0  0  0  0  0  0  0  0
   34.1139   50.0886   46.7940 C   0  0  0  0  0  0  0  0  0  0  0  0
   32.6373   47.6982   46.3708 C   0  0  0  0  0  0  0  0  0  0  0  0
   32.0211   46.4790   46.5067 C   0  0  0  0  0  0  0  0  0  0  0  0
   32.9446   44.9858   46.4857 Cl  0  0  0  0  0  0  0  0  0  0  0  0
   30.6451   46.4785   46.6602 C   0  0  0  0  0  0  0  0  0  0  0  0
   27.9129   46.4666   47.4671 C   0  0  0  0  0  0  0  0  0  0  0  0
   26.5517   46.3983   47.6169 C   0  0  0  0  0  0  0  0  0  0  0  0
  2  1  1  6
  3  2  1  1
  4  2  1  1
  2  5  1  0
  5 24  2  0
  5  6  1  0
  6  7  2  0
  7  8  1  0
  8  9  1  0
  8 23  2  0
  9 22  1  0
  9 10  2  0
 10 11  1  0
 12 11  1  6
 11 19  2  0
 12 18  1  0
 12 13  1  0
 16 12  1  6
 13 14  1  0
 13 15  2  3
 17 16  1  6
 18 17  1  1
 19 20  1  0
 20 21  1  0
 20 22  2  0
 23 24  1  0
M  CHG  1  15   1
M  END
$$$$
