
     RDKit          3D

 24 26  0  0  0  0  0  0  0  0999 V2000
   29.7729   47.6733   70.8604 O   0  0  0  0  0  0  0  0  0  0  0  0
   29.7557   46.9005   69.6789 C   0  0  1  0  0  0  0  0  0  0  0  0
   29.3012   47.8388   68.5791 C   0  0  0  0  0  0  0  0  0  0  0  0
   31.1749   46.4237   69.4680 C   0  0  0  0  0  0  0  0  0  0  0  0
   28.7926   45.8009   69.8564 C   0  0  0  0  0  0  0  0  0  0  0  0
   28.6939   44.7710   68.9496 C   0  0  0  0  0  0  0  0  0  0  0  0
   27.7613   43.7604   69.1758 C   0  0  0  0  0  0  0  0  0  0  0  0
   26.9264   43.7615   70.2916 C   0  0  0  0  0  0  0  0  0  0  0  0
   25.9525   42.7051   70.5269 C   0  0  0  0  0  0  0  0  0  0  0  0
   25.4720   41.8808   69.4984 C   0  0  0  0  0  0  0  0  0  0  0  0
   24.5523   40.8923   69.7548 C   0  0  0  0  0  0  0  0  0  0  0  0
   24.0116   40.0007   68.7336 C   0  0  1  0  0  0  0  0  0  0  0  0
   24.7548   38.6993   68.5996 C   0  0  0  0  0  0  0  0  0  0  0  0
   24.0166   37.5135   68.7798 N   0  0  0  0  0  0  0  0  0  0  0  0
   25.9999   38.6471   68.3237 N   0  0  0  0  0  4  0  0  0  0  0  0
   22.5250   39.7363   68.7681 C   0  0  0  0  0  0  0  0  0  0  0  0
   22.3779   41.0068   67.9149 C   0  0  0  0  0  0  0  0  0  0  0  0
   23.7694   40.6699   67.3948 C   0  0  0  0  0  0  0  0  0  0  0  0
   24.1181   40.7436   71.0761 C   0  0  0  0  0  0  0  0  0  0  0  0
   24.5618   41.5277   72.1119 C   0  0  0  0  0  0  0  0  0  0  0  0
   23.9757   41.2884   73.7495 Cl  0  0  0  0  0  0  0  0  0  0  0  0
   25.4881   42.5115   71.8096 C   0  0  0  0  0  0  0  0  0  0  0  0
   27.0422   44.8019   71.1861 C   0  0  0  0  0  0  0  0  0  0  0  0
   27.9635   45.7904   70.9528 C   0  0  0  0  0  0  0  0  0  0  0  0
  2  1  1  1
  3  2  1  1
  4  2  1  1
  2  5  1  0
  5 24  2  0
  5  6  1  0
  6  7  2  0
  7  8  1  0
  8  9  1  0
  8 23  2  0
  9 22  1  0
  9 10  2  0
 10 11  1  0
 12 11  1  1
 11 19  2  0
 12 18  1  0
 12 13  1  0
 16 12  1  6
 13 14  1  0
 13 15  2  3
 17 16  1  6
 18 17  1  1
 19 20  1  0
 20 21  1  0
 20 22  2  0
 23 24  1  0
M  CHG  1  15   1
M  END
$$$$
