
     RDKit          3D

 24 26  0  0  0  0  0  0  0  0999 V2000
   15.9018   42.0732   47.6572 O   0  0  0  0  0  0  0  0  0  0  0  0
   17.0120   42.4108   48.4614 C   0  0  1  0  0  0  0  0  0  0  0  0
   18.1230   41.4667   48.0480 C   0  0  0  0  0  0  0  0  0  0  0  0
   17.3415   43.8509   48.1397 C   0  0  0  0  0  0  0  0  0  0  0  0
   16.6463   42.1985   49.8719 C   0  0  0  0  0  0  0  0  0  0  0  0
   17.2068   42.9412   50.8852 C   0  0  0  0  0  0  0  0  0  0  0  0
   16.8176   42.6906   52.1998 C   0  0  0  0  0  0  0  0  0  0  0  0
   15.8786   41.7113   52.5185 C   0  0  0  0  0  0  0  0  0  0  0  0
   15.4727   41.4504   53.8922 C   0  0  0  0  0  0  0  0  0  0  0  0
   14.1473   41.1522   54.2423 C   0  0  0  0  0  0  0  0  0  0  0  0
   13.7976   40.9109   55.5494 C   0  0  0  0  0  0  0  0  0  0  0  0
   12.4400   40.5955   55.9824 C   0  0  1  0  0  0  0  0  0  0  0  0
   11.5275   41.7894   56.0589 C   0  0  0  0  0  0  0  0  0  0  0  0
   12.0679   42.9819   56.5779 N   0  0  0  0  0  0  0  0  0  0  0  0
   10.3139   41.7501   55.6655 N   0  0  0  0  0  4  0  0  0  0  0  0
   11.7370   39.4627   55.2728 C   0  0  0  0  0  0  0  0  0  0  0  0
   12.4127   38.5331   56.2940 C   0  0  0  0  0  0  0  0  0  0  0  0
   12.3735   39.7350   57.2290 C   0  0  0  0  0  0  0  0  0  0  0  0
   14.8124   40.9748   56.5098 C   0  0  0  0  0  0  0  0  0  0  0  0
   16.1209   41.2629   56.2110 C   0  0  0  0  0  0  0  0  0  0  0  0
   17.3474   41.3276   57.4658 Cl  0  0  0  0  0  0  0  0  0  0  0  0
   16.4298   41.4994   54.8822 C   0  0  0  0  0  0  0  0  0  0  0  0
   15.3304   40.9800   51.4886 C   0  0  0  0  0  0  0  0  0  0  0  0
   15.7213   41.2358   50.1995 C   0  0  0  0  0  0  0  0  0  0  0  0
  2  1  1  6
  3  2  1  1
  4  2  1  1
  2  5  1  0
  5 24  2  0
  5  6  1  0
  6  7  2  0
  7  8  1  0
  8  9  1  0
  8 23  2  0
  9 22  1  0
  9 10  2  0
 10 11  1  0
 12 11  1  6
 11 19  2  0
 12 18  1  0
 12 13  1  0
 16 12  1  6
 13 14  1  0
 13 15  2  3
 17 16  1  6
 18 17  1  1
 19 20  1  0
 20 21  1  0
 20 22  2  0
 23 24  1  0
M  CHG  1  15   1
M  END
$$$$
