
     RDKit          3D

 24 26  0  0  0  0  0  0  0  0999 V2000
   12.1904   28.5758   65.5197 O   0  0  0  0  0  0  0  0  0  0  0  0
   12.9488   29.6696   65.9907 C   0  0  1  0  0  0  0  0  0  0  0  0
   13.5017   30.3507   64.7551 C   0  0  0  0  0  0  0  0  0  0  0  0
   11.9836   30.5566   66.7441 C   0  0  0  0  0  0  0  0  0  0  0  0
   14.0404   29.1508   66.8318 C   0  0  0  0  0  0  0  0  0  0  0  0
   14.0292   27.8653   67.3216 C   0  0  0  0  0  0  0  0  0  0  0  0
   15.0933   27.4356   68.1124 C   0  0  0  0  0  0  0  0  0  0  0  0
   16.1674   28.2679   68.4217 C   0  0  0  0  0  0  0  0  0  0  0  0
   17.2786   27.8179   69.2479 C   0  0  0  0  0  0  0  0  0  0  0  0
   17.8759   26.5588   69.0862 C   0  0  0  0  0  0  0  0  0  0  0  0
   18.9237   26.1648   69.8835 C   0  0  0  0  0  0  0  0  0  0  0  0
   19.5901   24.8714   69.7693 C   0  0  1  0  0  0  0  0  0  0  0  0
   21.0507   24.9625   69.4196 C   0  0  0  0  0  0  0  0  0  0  0  0
   21.3777   25.4332   68.1331 N   0  0  0  0  0  0  0  0  0  0  0  0
   21.9730   24.6428   70.2420 N   0  0  0  0  0  4  0  0  0  0  0  0
   19.3993   23.8962   70.9066 C   0  0  0  0  0  0  0  0  0  0  0  0
   18.1241   23.4443   70.1764 C   0  0  0  0  0  0  0  0  0  0  0  0
   18.8493   23.8690   68.9059 C   0  0  0  0  0  0  0  0  0  0  0  0
   19.3668   27.0664   70.8568 C   0  0  0  0  0  0  0  0  0  0  0  0
   18.8115   28.3070   71.0488 C   0  0  0  0  0  0  0  0  0  0  0  0
   19.4158   29.3918   72.2902 Cl  0  0  0  0  0  0  0  0  0  0  0  0
   17.7581   28.6639   70.2240 C   0  0  0  0  0  0  0  0  0  0  0  0
   16.1580   29.5505   67.9209 C   0  0  0  0  0  0  0  0  0  0  0  0
   15.1055   29.9618   67.1441 C   0  0  0  0  0  0  0  0  0  0  0  0
  2  1  1  6
  3  2  1  1
  4  2  1  1
  2  5  1  0
  5 24  2  0
  5  6  1  0
  6  7  2  0
  7  8  1  0
  8  9  1  0
  8 23  2  0
  9 22  1  0
  9 10  2  0
 10 11  1  0
 12 11  1  1
 11 19  2  0
 12 18  1  0
 12 13  1  0
 16 12  1  6
 13 14  1  0
 13 15  2  3
 17 16  1  6
 18 17  1  1
 19 20  1  0
 20 21  1  0
 20 22  2  0
 23 24  1  0
M  CHG  1  15   1
M  END
$$$$
