
     RDKit          3D

 24 26  0  0  0  0  0  0  0  0999 V2000
   23.0032   50.7531   48.6705 O   0  0  0  0  0  0  0  0  0  0  0  0
   23.2737   49.4920   49.2449 C   0  0  1  0  0  0  0  0  0  0  0  0
   23.3034   49.7190   50.7429 C   0  0  0  0  0  0  0  0  0  0  0  0
   22.1347   48.5883   48.8300 C   0  0  0  0  0  0  0  0  0  0  0  0
   24.5867   49.0329   48.7617 C   0  0  0  0  0  0  0  0  0  0  0  0
   24.8091   47.7236   48.4027 C   0  0  0  0  0  0  0  0  0  0  0  0
   26.0752   47.3533   47.9532 C   0  0  0  0  0  0  0  0  0  0  0  0
   27.1218   48.2683   47.8564 C   0  0  0  0  0  0  0  0  0  0  0  0
   28.4442   47.8803   47.3865 C   0  0  0  0  0  0  0  0  0  0  0  0
   29.3748   48.8118   46.9023 C   0  0  0  0  0  0  0  0  0  0  0  0
   30.6153   48.4118   46.4661 C   0  0  0  0  0  0  0  0  0  0  0  0
   31.6295   49.3264   45.9513 C   0  0  1  0  0  0  0  0  0  0  0  0
   31.6724   49.4124   44.4497 C   0  0  0  0  0  0  0  0  0  0  0  0
   32.0023   48.2381   43.7456 N   0  0  0  0  0  0  0  0  0  0  0  0
   31.4135   50.4909   43.8179 N   0  0  0  0  0  4  0  0  0  0  0  0
   31.6664   50.7160   46.5416 C   0  0  0  0  0  0  0  0  0  0  0  0
   32.5746   50.1234   47.6314 C   0  0  0  0  0  0  0  0  0  0  0  0
   33.0043   49.1299   46.5596 C   0  0  0  0  0  0  0  0  0  0  0  0
   30.9089   47.0456   46.5250 C   0  0  0  0  0  0  0  0  0  0  0  0
   30.0285   46.1011   46.9912 C   0  0  0  0  0  0  0  0  0  0  0  0
   30.4604   44.3998   47.0383 Cl  0  0  0  0  0  0  0  0  0  0  0  0
   28.7901   46.5470   47.4207 C   0  0  0  0  0  0  0  0  0  0  0  0
   26.8770   49.5734   48.2208 C   0  0  0  0  0  0  0  0  0  0  0  0
   25.6272   49.9256   48.6616 C   0  0  0  0  0  0  0  0  0  0  0  0
  2  1  1  6
  3  2  1  1
  4  2  1  1
  2  5  1  0
  5 24  2  0
  5  6  1  0
  6  7  2  0
  7  8  1  0
  8  9  1  0
  8 23  2  0
  9 22  1  0
  9 10  2  0
 10 11  1  0
 12 11  1  6
 11 19  2  0
 12 18  1  0
 12 13  1  0
 16 12  1  6
 13 14  1  0
 13 15  2  3
 17 16  1  6
 18 17  1  1
 19 20  1  0
 20 21  1  0
 20 22  2  0
 23 24  1  0
M  CHG  1  15   1
M  END
$$$$
