
     RDKit          3D

 24 26  0  0  0  0  0  0  0  0999 V2000
   15.2378   42.0091   54.3681 O   0  0  0  0  0  0  0  0  0  0  0  0
   16.2823   41.1208   54.7048 C   0  0  1  0  0  0  0  0  0  0  0  0
   15.8882   39.7800   54.1189 C   0  0  0  0  0  0  0  0  0  0  0  0
   17.5314   41.6774   54.0597 C   0  0  0  0  0  0  0  0  0  0  0  0
   16.3708   41.0421   56.1725 C   0  0  0  0  0  0  0  0  0  0  0  0
   17.4964   40.5682   56.8058 C   0  0  0  0  0  0  0  0  0  0  0  0
   17.5164   40.5192   58.1985 C   0  0  0  0  0  0  0  0  0  0  0  0
   16.4317   40.9353   58.9682 C   0  0  0  0  0  0  0  0  0  0  0  0
   16.4538   40.8837   60.4231 C   0  0  0  0  0  0  0  0  0  0  0  0
   15.7798   41.8209   61.2204 C   0  0  0  0  0  0  0  0  0  0  0  0
   15.8211   41.7434   62.5920 C   0  0  0  0  0  0  0  0  0  0  0  0
   15.1442   42.6835   63.4797 C   0  0  1  0  0  0  0  0  0  0  0  0
   13.6490   42.5201   63.5211 C   0  0  0  0  0  0  0  0  0  0  0  0
   13.1395   41.4269   64.2483 N   0  0  0  0  0  0  0  0  0  0  0  0
   12.8551   43.3321   62.9384 N   0  0  0  0  0  4  0  0  0  0  0  0
   15.6810   42.8107   64.8856 C   0  0  0  0  0  0  0  0  0  0  0  0
   16.6535   43.8561   64.3154 C   0  0  0  0  0  0  0  0  0  0  0  0
   15.5639   44.1275   63.2861 C   0  0  0  0  0  0  0  0  0  0  0  0
   16.5587   40.6974   63.1559 C   0  0  0  0  0  0  0  0  0  0  0  0
   17.2326   39.7596   62.4136 C   0  0  0  0  0  0  0  0  0  0  0  0
   18.1411   38.4703   63.1851 Cl  0  0  0  0  0  0  0  0  0  0  0  0
   17.1646   39.8747   61.0355 C   0  0  0  0  0  0  0  0  0  0  0  0
   15.3156   41.4060   58.3135 C   0  0  0  0  0  0  0  0  0  0  0  0
   15.3078   41.4494   56.9430 C   0  0  0  0  0  0  0  0  0  0  0  0
  2  1  1  1
  3  2  1  1
  4  2  1  1
  2  5  1  0
  5 24  2  0
  5  6  1  0
  6  7  2  0
  7  8  1  0
  8  9  1  0
  8 23  2  0
  9 22  1  0
  9 10  2  0
 10 11  1  0
 12 11  1  6
 11 19  2  0
 12 18  1  0
 12 13  1  0
 16 12  1  6
 13 14  1  0
 13 15  2  3
 17 16  1  6
 18 17  1  1
 19 20  1  0
 20 21  1  0
 20 22  2  0
 23 24  1  0
M  CHG  1  15   1
M  END
$$$$
