
     RDKit          3D

 25 27  0  0  0  0  0  0  0  0999 V2000
   37.2979   52.9539   44.8043 O   0  0  0  0  0  0  0  0  0  0  0  0
   37.1832   51.7225   44.9266 C   0  0  0  0  0  0  0  0  0  0  0  0
   38.4161   50.8772   44.7963 C   0  0  0  0  0  0  0  0  0  0  0  0
   35.9527   51.0843   45.1815 N   0  0  0  0  0  0  0  0  0  0  0  0
   34.7359   51.8111   45.2864 C   0  0  0  0  0  0  0  0  0  0  0  0
   33.5867   50.9648   45.6658 C   0  0  0  0  0  0  0  0  0  0  0  0
   32.9528   50.0734   44.8554 C   0  0  0  0  0  0  0  0  0  0  0  0
   31.8758   49.2895   45.2571 C   0  0  0  0  0  0  0  0  0  0  0  0
   31.4192   49.4180   46.5488 C   0  0  0  0  0  0  0  0  0  0  0  0
   30.2993   48.6450   47.0589 C   0  0  0  0  0  0  0  0  0  0  0  0
   29.2262   49.2396   47.6864 C   0  0  0  0  0  0  0  0  0  0  0  0
   28.1576   48.5358   48.1801 C   0  0  0  0  0  0  0  0  0  0  0  0
   27.0005   49.1639   48.8519 C   0  0  1  0  0  0  0  0  0  0  0  0
   25.8055   49.3869   48.0298 C   0  0  0  0  0  0  0  0  0  0  0  0
   25.4806   48.5201   46.9215 N   0  0  0  0  0  0  0  0  0  0  0  0
   24.9980   50.3460   48.2641 N   0  0  0  0  0  4  0  0  0  0  0  0
   26.7009   48.7082   50.2352 C   0  0  0  0  0  0  0  0  0  0  0  0
   26.2646   50.1609   50.5055 C   0  0  0  0  0  0  0  0  0  0  0  0
   27.4020   50.5159   49.5278 C   0  0  0  0  0  0  0  0  0  0  0  0
   28.1703   47.1689   48.0344 C   0  0  0  0  0  0  0  0  0  0  0  0
   29.2394   46.5229   47.4037 C   0  0  0  0  0  0  0  0  0  0  0  0
   29.2957   44.7899   47.1981 Cl  0  0  0  0  0  0  0  0  0  0  0  0
   30.2888   47.2772   46.9256 C   0  0  0  0  0  0  0  0  0  0  0  0
   32.0417   50.3083   47.3811 C   0  0  0  0  0  0  0  0  0  0  0  0
   33.0979   51.0715   46.9735 C   0  0  0  0  0  0  0  0  0  0  0  0
  1  2  2  0
  3  2  1  1
  2  4  1  0
  5  4  1  6
  5  6  1  0
  6 25  2  0
  6  7  1  0
  7  8  2  0
  8  9  1  0
  9 10  1  0
  9 24  2  0
 10 23  1  0
 10 11  2  0
 11 12  1  0
 13 12  1  6
 12 20  2  0
 13 19  1  0
 13 14  1  0
 17 13  1  6
 14 15  1  0
 14 16  2  3
 18 17  1  6
 19 18  1  1
 20 21  1  0
 21 22  1  0
 21 23  2  0
 24 25  1  0
M  CHG  1  16   1
M  END
$$$$
