
     RDKit          3D

 25 27  0  0  0  0  0  0  0  0999 V2000
   35.8142   53.5556   49.5796 O   0  0  0  0  0  0  0  0  0  0  0  0
   35.9214   52.3228   49.6941 C   0  0  0  0  0  0  0  0  0  0  0  0
   36.8931   51.7842   50.7026 C   0  0  0  0  0  0  0  0  0  0  0  0
   35.1748   51.4091   48.9233 N   0  0  0  0  0  0  0  0  0  0  0  0
   34.2278   51.8395   47.9549 C   0  0  0  0  0  0  0  0  0  0  0  0
   33.1365   50.8680   47.7404 C   0  0  0  0  0  0  0  0  0  0  0  0
   33.0453   49.6347   48.3096 C   0  0  0  0  0  0  0  0  0  0  0  0
   31.9935   48.7524   48.0846 C   0  0  0  0  0  0  0  0  0  0  0  0
   30.9819   49.1430   47.2374 C   0  0  0  0  0  0  0  0  0  0  0  0
   29.8441   48.2900   46.9385 C   0  0  0  0  0  0  0  0  0  0  0  0
   28.7181   48.7687   46.3045 C   0  0  0  0  0  0  0  0  0  0  0  0
   27.6288   47.9884   46.0125 C   0  0  0  0  0  0  0  0  0  0  0  0
   26.4177   48.4911   45.3303 C   0  0  1  0  0  0  0  0  0  0  0  0
   25.1330   47.9517   45.7908 C   0  0  0  0  0  0  0  0  0  0  0  0
   24.5522   48.3585   47.0488 N   0  0  0  0  0  0  0  0  0  0  0  0
   24.4697   47.1115   45.0976 N   0  0  0  0  0  4  0  0  0  0  0  0
   26.3807   49.9440   45.0160 C   0  0  0  0  0  0  0  0  0  0  0  0
   25.6092   49.5409   43.7447 C   0  0  0  0  0  0  0  0  0  0  0  0
   26.5161   48.2953   43.7818 C   0  0  0  0  0  0  0  0  0  0  0  0
   27.6761   46.6633   46.3757 C   0  0  0  0  0  0  0  0  0  0  0  0
   28.7991   46.1343   47.0212 C   0  0  0  0  0  0  0  0  0  0  0  0
   28.9004   44.4581   47.4998 Cl  0  0  0  0  0  0  0  0  0  0  0  0
   29.8671   46.9620   47.2917 C   0  0  0  0  0  0  0  0  0  0  0  0
   31.0531   50.3789   46.6539 C   0  0  0  0  0  0  0  0  0  0  0  0
   32.0916   51.2350   46.8837 C   0  0  0  0  0  0  0  0  0  0  0  0
  1  2  2  0
  3  2  1  1
  2  4  1  0
  5  4  1  6
  5  6  1  0
  6 25  2  0
  6  7  1  0
  7  8  2  0
  8  9  1  0
  9 10  1  0
  9 24  2  0
 10 23  1  0
 10 11  2  0
 11 12  1  0
 13 12  1  1
 12 20  2  0
 13 19  1  0
 13 14  1  0
 17 13  1  6
 14 15  1  0
 14 16  2  3
 18 17  1  6
 19 18  1  1
 20 21  1  0
 21 22  1  0
 21 23  2  0
 24 25  1  0
M  CHG  1  16   1
M  END
$$$$
