
     RDKit          3D

 25 27  0  0  0  0  0  0  0  0999 V2000
   17.1444   39.5318   52.0499 O   0  0  0  0  0  0  0  0  0  0  0  0
   16.2973   40.4331   52.1704 C   0  0  0  0  0  0  0  0  0  0  0  0
   15.5753   40.8993   50.9404 C   0  0  0  0  0  0  0  0  0  0  0  0
   15.9834   41.0362   53.4050 N   0  0  0  0  0  0  0  0  0  0  0  0
   16.6080   40.6369   54.6176 C   0  0  0  0  0  0  0  0  0  0  0  0
   15.8808   41.0903   55.8202 C   0  0  0  0  0  0  0  0  0  0  0  0
   15.0408   42.1595   55.8866 C   0  0  0  0  0  0  0  0  0  0  0  0
   14.3692   42.5478   57.0415 C   0  0  0  0  0  0  0  0  0  0  0  0
   14.5610   41.8118   58.1883 C   0  0  0  0  0  0  0  0  0  0  0  0
   13.9061   42.1412   59.4431 C   0  0  0  0  0  0  0  0  0  0  0  0
   12.6495   42.7051   59.4858 C   0  0  0  0  0  0  0  0  0  0  0  0
   12.0085   43.0290   60.6542 C   0  0  0  0  0  0  0  0  0  0  0  0
   10.6598   43.6312   60.7112 C   0  0  1  0  0  0  0  0  0  0  0  0
   10.4798   44.7515   61.6418 C   0  0  0  0  0  0  0  0  0  0  0  0
   10.6728   46.1194   61.2211 N   0  0  0  0  0  0  0  0  0  0  0  0
   10.1351   44.5678   62.8560 N   0  0  0  0  0  4  0  0  0  0  0  0
    9.9495   43.8062   59.4167 C   0  0  0  0  0  0  0  0  0  0  0  0
    8.6609   43.5010   60.2043 C   0  0  0  0  0  0  0  0  0  0  0  0
    9.5686   42.5518   61.0108 C   0  0  0  0  0  0  0  0  0  0  0  0
   12.6639   42.7724   61.8351 C   0  0  0  0  0  0  0  0  0  0  0  0
   13.9410   42.2007   61.8392 C   0  0  0  0  0  0  0  0  0  0  0  0
   14.8085   41.8586   63.3154 Cl  0  0  0  0  0  0  0  0  0  0  0  0
   14.5408   41.8945   60.6369 C   0  0  0  0  0  0  0  0  0  0  0  0
   15.4014   40.7326   58.1445 C   0  0  0  0  0  0  0  0  0  0  0  0
   16.0543   40.3627   57.0038 C   0  0  0  0  0  0  0  0  0  0  0  0
  1  2  2  0
  3  2  1  1
  2  4  1  0
  5  4  1  6
  5  6  1  0
  6 25  2  0
  6  7  1  0
  7  8  2  0
  8  9  1  0
  9 10  1  0
  9 24  2  0
 10 23  1  0
 10 11  2  0
 11 12  1  0
 13 12  1  6
 12 20  2  0
 13 19  1  0
 13 14  1  0
 17 13  1  6
 14 15  1  0
 14 16  2  3
 18 17  1  6
 19 18  1  1
 20 21  1  0
 21 22  1  0
 21 23  2  0
 24 25  1  0
M  CHG  1  16   1
M  END
$$$$
