
     RDKit          3D

 25 27  0  0  0  0  0  0  0  0999 V2000
   31.3581   39.9886   62.5178 O   0  0  0  0  0  0  0  0  0  0  0  0
   31.6830   39.7949   63.7016 C   0  0  0  0  0  0  0  0  0  0  0  0
   33.1275   39.5284   64.0079 C   0  0  0  0  0  0  0  0  0  0  0  0
   30.7608   39.8141   64.7673 N   0  0  0  0  0  0  0  0  0  0  0  0
   29.3727   40.0352   64.5570 C   0  0  0  0  0  0  0  0  0  0  0  0
   28.5858   40.0056   65.8063 C   0  0  0  0  0  0  0  0  0  0  0  0
   29.0912   39.8620   67.0621 C   0  0  0  0  0  0  0  0  0  0  0  0
   28.3121   39.8465   68.2147 C   0  0  0  0  0  0  0  0  0  0  0  0
   26.9491   39.9839   68.0847 C   0  0  0  0  0  0  0  0  0  0  0  0
   26.0535   39.9769   69.2290 C   0  0  0  0  0  0  0  0  0  0  0  0
   26.4261   40.4908   70.4521 C   0  0  0  0  0  0  0  0  0  0  0  0
   25.6037   40.4951   71.5497 C   0  0  0  0  0  0  0  0  0  0  0  0
   25.9925   41.0463   72.8649 C   0  0  1  0  0  0  0  0  0  0  0  0
   26.4752   40.0849   73.8630 C   0  0  0  0  0  0  0  0  0  0  0  0
   27.0469   40.5215   75.1152 N   0  0  0  0  0  0  0  0  0  0  0  0
   26.4009   38.8257   73.6741 N   0  0  0  0  0  4  0  0  0  0  0  0
   26.7412   42.3309   72.8576 C   0  0  0  0  0  0  0  0  0  0  0  0
   25.9856   42.6561   74.1604 C   0  0  0  0  0  0  0  0  0  0  0  0
   24.8306   41.8816   73.4959 C   0  0  0  0  0  0  0  0  0  0  0  0
   24.3466   39.9568   71.4084 C   0  0  0  0  0  0  0  0  0  0  0  0
   23.9259   39.4239   70.1849 C   0  0  0  0  0  0  0  0  0  0  0  0
   22.3388   38.7308   69.9623 Cl  0  0  0  0  0  0  0  0  0  0  0  0
   24.7918   39.4442   69.1132 C   0  0  0  0  0  0  0  0  0  0  0  0
   26.4192   40.1295   66.8313 C   0  0  0  0  0  0  0  0  0  0  0  0
   27.1959   40.1429   65.7084 C   0  0  0  0  0  0  0  0  0  0  0  0
  1  2  2  0
  3  2  1  1
  2  4  1  0
  5  4  1  6
  5  6  1  0
  6 25  2  0
  6  7  1  0
  7  8  2  0
  8  9  1  0
  9 10  1  0
  9 24  2  0
 10 23  1  0
 10 11  2  0
 11 12  1  0
 13 12  1  6
 12 20  2  0
 13 19  1  0
 13 14  1  0
 17 13  1  6
 14 15  1  0
 14 16  2  3
 18 17  1  6
 19 18  1  1
 20 21  1  0
 21 22  1  0
 21 23  2  0
 24 25  1  0
M  CHG  1  16   1
M  END
$$$$
