
     RDKit          3D

 25 27  0  0  0  0  0  0  0  0999 V2000
   27.2869   31.7548   37.4418 O   0  0  0  0  0  0  0  0  0  0  0  0
   26.2283   32.3814   37.2648 C   0  0  0  0  0  0  0  0  0  0  0  0
   24.9371   31.6175   37.2912 C   0  0  0  0  0  0  0  0  0  0  0  0
   26.1838   33.7722   37.0413 N   0  0  0  0  0  0  0  0  0  0  0  0
   27.3652   34.5542   36.9289 C   0  0  0  0  0  0  0  0  0  0  0  0
   27.1032   36.0072   36.9611 C   0  0  0  0  0  0  0  0  0  0  0  0
   28.0180   36.9865   36.7218 C   0  0  0  0  0  0  0  0  0  0  0  0
   27.7256   38.3463   36.7560 C   0  0  0  0  0  0  0  0  0  0  0  0
   26.4372   38.7310   37.0484 C   0  0  0  0  0  0  0  0  0  0  0  0
   26.0367   40.1266   37.1100 C   0  0  0  0  0  0  0  0  0  0  0  0
   26.6447   41.0962   36.3425 C   0  0  0  0  0  0  0  0  0  0  0  0
   26.2901   42.4204   36.3819 C   0  0  0  0  0  0  0  0  0  0  0  0
   26.9336   43.4676   35.5608 C   0  0  1  0  0  0  0  0  0  0  0  0
   27.2299   43.1189   34.1665 C   0  0  0  0  0  0  0  0  0  0  0  0
   26.3366   43.4836   33.0921 N   0  0  0  0  0  0  0  0  0  0  0  0
   28.2914   42.4905   33.8419 N   0  0  0  0  0  4  0  0  0  0  0  0
   26.4372   44.8577   35.7394 C   0  0  0  0  0  0  0  0  0  0  0  0
   27.8935   45.2961   35.4925 C   0  0  0  0  0  0  0  0  0  0  0  0
   28.2439   43.9916   36.2347 C   0  0  0  0  0  0  0  0  0  0  0  0
   25.2749   42.7850   37.2342 C   0  0  0  0  0  0  0  0  0  0  0  0
   24.6294   41.8340   38.0321 C   0  0  0  0  0  0  0  0  0  0  0  0
   23.3363   42.2540   39.1277 Cl  0  0  0  0  0  0  0  0  0  0  0  0
   25.0247   40.5162   37.9544 C   0  0  0  0  0  0  0  0  0  0  0  0
   25.5010   37.7631   37.2924 C   0  0  0  0  0  0  0  0  0  0  0  0
   25.8019   36.4318   37.2556 C   0  0  0  0  0  0  0  0  0  0  0  0
  1  2  2  0
  3  2  1  1
  2  4  1  0
  5  4  1  6
  5  6  1  0
  6 25  2  0
  6  7  1  0
  7  8  2  0
  8  9  1  0
  9 10  1  0
  9 24  2  0
 10 23  1  0
 10 11  2  0
 11 12  1  0
 13 12  1  1
 12 20  2  0
 13 19  1  0
 13 14  1  0
 17 13  1  6
 14 15  1  0
 14 16  2  3
 18 17  1  6
 19 18  1  1
 20 21  1  0
 21 22  1  0
 21 23  2  0
 24 25  1  0
M  CHG  1  16   1
M  END
$$$$
