
     RDKit          3D

 25 27  0  0  0  0  0  0  0  0999 V2000
   23.7140   40.4903   73.5014 O   0  0  0  0  0  0  0  0  0  0  0  0
   22.9617   40.5229   72.5127 C   0  0  0  0  0  0  0  0  0  0  0  0
   21.6812   41.2978   72.6190 C   0  0  0  0  0  0  0  0  0  0  0  0
   23.2542   39.8681   71.2994 N   0  0  0  0  0  0  0  0  0  0  0  0
   24.4734   39.1660   71.0984 C   0  0  0  0  0  0  0  0  0  0  0  0
   25.0217   39.3357   69.7378 C   0  0  0  0  0  0  0  0  0  0  0  0
   24.3575   39.0890   68.5753 C   0  0  0  0  0  0  0  0  0  0  0  0
   24.9115   39.2696   67.3120 C   0  0  0  0  0  0  0  0  0  0  0  0
   26.2074   39.7242   67.2250 C   0  0  0  0  0  0  0  0  0  0  0  0
   26.8725   39.9405   65.9512 C   0  0  0  0  0  0  0  0  0  0  0  0
   28.2266   39.7417   65.7904 C   0  0  0  0  0  0  0  0  0  0  0  0
   28.8813   39.9406   64.6019 C   0  0  0  0  0  0  0  0  0  0  0  0
   30.3324   39.7274   64.4181 C   0  0  1  0  0  0  0  0  0  0  0  0
   31.1235   40.8990   64.0244 C   0  0  0  0  0  0  0  0  0  0  0  0
   31.4189   41.1779   62.6386 N   0  0  0  0  0  0  0  0  0  0  0  0
   31.5737   41.7259   64.8848 N   0  0  0  0  0  4  0  0  0  0  0  0
   31.0110   38.8502   65.4086 C   0  0  0  0  0  0  0  0  0  0  0  0
   31.8966   38.3897   64.2349 C   0  0  0  0  0  0  0  0  0  0  0  0
   30.6120   38.5710   63.4030 C   0  0  0  0  0  0  0  0  0  0  0  0
   28.1370   40.3590   63.5244 C   0  0  0  0  0  0  0  0  0  0  0  0
   26.7593   40.5734   63.6420 C   0  0  0  0  0  0  0  0  0  0  0  0
   25.7771   41.1047   62.2997 Cl  0  0  0  0  0  0  0  0  0  0  0  0
   26.1503   40.3590   64.8593 C   0  0  0  0  0  0  0  0  0  0  0  0
   26.8943   39.9787   68.3811 C   0  0  0  0  0  0  0  0  0  0  0  0
   26.3380   39.7970   69.6147 C   0  0  0  0  0  0  0  0  0  0  0  0
  1  2  2  0
  3  2  1  1
  2  4  1  0
  5  4  1  6
  5  6  1  0
  6 25  2  0
  6  7  1  0
  7  8  2  0
  8  9  1  0
  9 10  1  0
  9 24  2  0
 10 23  1  0
 10 11  2  0
 11 12  1  0
 13 12  1  1
 12 20  2  0
 13 19  1  0
 13 14  1  0
 17 13  1  6
 14 15  1  0
 14 16  2  3
 18 17  1  6
 19 18  1  1
 20 21  1  0
 21 22  1  0
 21 23  2  0
 24 25  1  0
M  CHG  1  16   1
M  END
$$$$
