
     RDKit          3D

 25 27  0  0  0  0  0  0  0  0999 V2000
   30.2726   53.3995   49.9081 O   0  0  0  0  0  0  0  0  0  0  0  0
   29.9226   52.2293   50.1373 C   0  0  0  0  0  0  0  0  0  0  0  0
   29.5981   51.8484   51.5519 C   0  0  0  0  0  0  0  0  0  0  0  0
   29.8161   51.2456   49.1335 N   0  0  0  0  0  0  0  0  0  0  0  0
   30.1433   51.5165   47.7773 C   0  0  0  0  0  0  0  0  0  0  0  0
   29.7682   50.4208   46.8611 C   0  0  0  0  0  0  0  0  0  0  0  0
   29.2041   50.5695   45.6311 C   0  0  0  0  0  0  0  0  0  0  0  0
   28.8724   49.5072   44.7962 C   0  0  0  0  0  0  0  0  0  0  0  0
   29.1269   48.2275   45.2335 C   0  0  0  0  0  0  0  0  0  0  0  0
   28.8130   47.0551   44.4344 C   0  0  0  0  0  0  0  0  0  0  0  0
   28.6530   47.1236   43.0674 C   0  0  0  0  0  0  0  0  0  0  0  0
   28.3538   46.0352   42.2884 C   0  0  0  0  0  0  0  0  0  0  0  0
   28.1831   46.0973   40.8215 C   0  0  1  0  0  0  0  0  0  0  0  0
   26.8346   46.4025   40.3298 C   0  0  0  0  0  0  0  0  0  0  0  0
   25.8189   45.3807   40.2317 N   0  0  0  0  0  0  0  0  0  0  0  0
   26.4980   47.5818   39.9793 N   0  0  0  0  0  4  0  0  0  0  0  0
   29.2678   46.7584   40.0487 C   0  0  0  0  0  0  0  0  0  0  0  0
   28.9718   45.7204   38.9492 C   0  0  0  0  0  0  0  0  0  0  0  0
   28.6796   44.7820   40.1364 C   0  0  0  0  0  0  0  0  0  0  0  0
   28.2095   44.8205   42.9160 C   0  0  0  0  0  0  0  0  0  0  0  0
   28.3631   44.7043   44.3019 C   0  0  0  0  0  0  0  0  0  0  0  0
   28.1883   43.1817   45.1384 Cl  0  0  0  0  0  0  0  0  0  0  0  0
   28.6635   45.8296   45.0383 C   0  0  0  0  0  0  0  0  0  0  0  0
   29.6936   48.0544   46.4671 C   0  0  0  0  0  0  0  0  0  0  0  0
   30.0141   49.1064   47.2764 C   0  0  0  0  0  0  0  0  0  0  0  0
  1  2  2  0
  3  2  1  1
  2  4  1  0
  5  4  1  6
  5  6  1  0
  6 25  2  0
  6  7  1  0
  7  8  2  0
  8  9  1  0
  9 10  1  0
  9 24  2  0
 10 23  1  0
 10 11  2  0
 11 12  1  0
 13 12  1  1
 12 20  2  0
 13 19  1  0
 13 14  1  0
 17 13  1  6
 14 15  1  0
 14 16  2  3
 18 17  1  6
 19 18  1  1
 20 21  1  0
 21 22  1  0
 21 23  2  0
 24 25  1  0
M  CHG  1  16   1
M  END
$$$$
