
     RDKit          3D

 25 27  0  0  0  0  0  0  0  0999 V2000
   20.0203   41.6412   75.5680 O   0  0  0  0  0  0  0  0  0  0  0  0
   21.2075   41.2910   75.4567 C   0  0  0  0  0  0  0  0  0  0  0  0
   22.0955   41.3952   76.6617 C   0  0  0  0  0  0  0  0  0  0  0  0
   21.7575   40.8016   74.2548 N   0  0  0  0  0  0  0  0  0  0  0  0
   21.0577   40.8803   73.0204 C   0  0  0  0  0  0  0  0  0  0  0  0
   21.9266   40.6590   71.8470 C   0  0  0  0  0  0  0  0  0  0  0  0
   21.5190   40.6326   70.5484 C   0  0  0  0  0  0  0  0  0  0  0  0
   22.3747   40.4274   69.4708 C   0  0  0  0  0  0  0  0  0  0  0  0
   23.7138   40.2391   69.7257 C   0  0  0  0  0  0  0  0  0  0  0  0
   24.6835   40.0146   68.6669 C   0  0  0  0  0  0  0  0  0  0  0  0
   26.0393   40.1396   68.8789 C   0  0  0  0  0  0  0  0  0  0  0  0
   26.9770   39.9370   67.8987 C   0  0  0  0  0  0  0  0  0  0  0  0
   28.4333   40.0655   68.1163 C   0  0  1  0  0  0  0  0  0  0  0  0
   29.1483   40.9995   67.2388 C   0  0  0  0  0  0  0  0  0  0  0  0
   29.3773   42.3718   67.6255 N   0  0  0  0  0  0  0  0  0  0  0  0
   29.6072   40.6387   66.1048 N   0  0  0  0  0  4  0  0  0  0  0  0
   28.8996   40.0916   69.5279 C   0  0  0  0  0  0  0  0  0  0  0  0
   30.1404   39.3321   69.0204 C   0  0  0  0  0  0  0  0  0  0  0  0
   29.1423   38.6732   68.0484 C   0  0  0  0  0  0  0  0  0  0  0  0
   26.5276   39.5916   66.6461 C   0  0  0  0  0  0  0  0  0  0  0  0
   25.1598   39.4534   66.3857 C   0  0  0  0  0  0  0  0  0  0  0  0
   24.5467   39.0168   64.8101 Cl  0  0  0  0  0  0  0  0  0  0  0  0
   24.2593   39.6687   67.4062 C   0  0  0  0  0  0  0  0  0  0  0  0
   24.1458   40.2616   71.0240 C   0  0  0  0  0  0  0  0  0  0  0  0
   23.2947   40.4641   72.0723 C   0  0  0  0  0  0  0  0  0  0  0  0
  1  2  2  0
  3  2  1  1
  2  4  1  0
  5  4  1  6
  5  6  1  0
  6 25  2  0
  6  7  1  0
  7  8  2  0
  8  9  1  0
  9 10  1  0
  9 24  2  0
 10 23  1  0
 10 11  2  0
 11 12  1  0
 13 12  1  1
 12 20  2  0
 13 19  1  0
 13 14  1  0
 17 13  1  6
 14 15  1  0
 14 16  2  3
 18 17  1  6
 19 18  1  1
 20 21  1  0
 21 22  1  0
 21 23  2  0
 24 25  1  0
M  CHG  1  16   1
M  END
$$$$
