
     RDKit          3D

 25 27  0  0  0  0  0  0  0  0999 V2000
   33.9150   53.2976   52.5043 O   0  0  0  0  0  0  0  0  0  0  0  0
   34.4484   52.9256   51.4453 C   0  0  0  0  0  0  0  0  0  0  0  0
   35.9385   53.0480   51.3186 C   0  0  0  0  0  0  0  0  0  0  0  0
   33.7213   52.3953   50.3606 N   0  0  0  0  0  0  0  0  0  0  0  0
   32.3054   52.2763   50.3904 C   0  0  0  0  0  0  0  0  0  0  0  0
   31.7792   51.3618   49.3572 C   0  0  0  0  0  0  0  0  0  0  0  0
   32.2634   51.2273   48.0920 C   0  0  0  0  0  0  0  0  0  0  0  0
   31.7404   50.3462   47.1509 C   0  0  0  0  0  0  0  0  0  0  0  0
   30.6701   49.5612   47.5138 C   0  0  0  0  0  0  0  0  0  0  0  0
   30.0541   48.6141   46.5997 C   0  0  0  0  0  0  0  0  0  0  0  0
   29.7063   48.9612   45.3123 C   0  0  0  0  0  0  0  0  0  0  0  0
   29.1214   48.0901   44.4291 C   0  0  0  0  0  0  0  0  0  0  0  0
   28.7473   48.4513   43.0456 C   0  0  1  0  0  0  0  0  0  0  0  0
   27.3568   48.8675   42.8288 C   0  0  0  0  0  0  0  0  0  0  0  0
   26.4355   49.0209   43.9302 N   0  0  0  0  0  0  0  0  0  0  0  0
   26.9055   49.1221   41.6634 N   0  0  0  0  0  4  0  0  0  0  0  0
   29.7385   49.2417   42.2686 C   0  0  0  0  0  0  0  0  0  0  0  0
   29.2457   48.4528   41.0403 C   0  0  0  0  0  0  0  0  0  0  0  0
   29.0852   47.2965   42.0465 C   0  0  0  0  0  0  0  0  0  0  0  0
   28.8757   46.8090   44.8631 C   0  0  0  0  0  0  0  0  0  0  0  0
   29.2124   46.4128   46.1621 C   0  0  0  0  0  0  0  0  0  0  0  0
   28.9178   44.7965   46.7535 Cl  0  0  0  0  0  0  0  0  0  0  0  0
   29.7981   47.3276   47.0100 C   0  0  0  0  0  0  0  0  0  0  0  0
   30.1670   49.6799   48.7809 C   0  0  0  0  0  0  0  0  0  0  0  0
   30.6902   50.5491   49.6947 C   0  0  0  0  0  0  0  0  0  0  0  0
  1  2  2  0
  3  2  1  1
  2  4  1  0
  5  4  1  6
  5  6  1  0
  6 25  2  0
  6  7  1  0
  7  8  2  0
  8  9  1  0
  9 10  1  0
  9 24  2  0
 10 23  1  0
 10 11  2  0
 11 12  1  0
 13 12  1  1
 12 20  2  0
 13 19  1  0
 13 14  1  0
 17 13  1  6
 14 15  1  0
 14 16  2  3
 18 17  1  6
 19 18  1  1
 20 21  1  0
 21 22  1  0
 21 23  2  0
 24 25  1  0
M  CHG  1  16   1
M  END
$$$$
