
     RDKit          3D

 25 27  0  0  0  0  0  0  0  0999 V2000
   25.2971   52.1072   53.6947 O   0  0  0  0  0  0  0  0  0  0  0  0
   26.3531   52.3564   53.0886 C   0  0  0  0  0  0  0  0  0  0  0  0
   27.2023   53.4927   53.5776 C   0  0  0  0  0  0  0  0  0  0  0  0
   26.7894   51.6236   51.9665 N   0  0  0  0  0  0  0  0  0  0  0  0
   26.0594   50.5129   51.4632 C   0  0  0  0  0  0  0  0  0  0  0  0
   26.7622   49.8029   50.3756 C   0  0  0  0  0  0  0  0  0  0  0  0
   26.3108   49.6545   49.0999 C   0  0  0  0  0  0  0  0  0  0  0  0
   27.0104   48.9823   48.1028 C   0  0  0  0  0  0  0  0  0  0  0  0
   28.2317   48.4322   48.4180 C   0  0  0  0  0  0  0  0  0  0  0  0
   29.0341   47.7096   47.4455 C   0  0  0  0  0  0  0  0  0  0  0  0
   29.2127   48.1693   46.1589 C   0  0  0  0  0  0  0  0  0  0  0  0
   29.9615   47.5076   45.2195 C   0  0  0  0  0  0  0  0  0  0  0  0
   30.1618   47.9935   43.8380 C   0  0  1  0  0  0  0  0  0  0  0  0
   30.8674   49.2713   43.6873 C   0  0  0  0  0  0  0  0  0  0  0  0
   32.1492   49.5027   44.3109 N   0  0  0  0  0  0  0  0  0  0  0  0
   30.3867   50.2265   42.9921 N   0  0  0  0  0  4  0  0  0  0  0  0
   30.5353   46.9776   42.8185 C   0  0  0  0  0  0  0  0  0  0  0  0
   29.6954   47.8128   41.8331 C   0  0  0  0  0  0  0  0  0  0  0  0
   28.8056   48.0766   43.0635 C   0  0  0  0  0  0  0  0  0  0  0  0
   30.5588   46.3274   45.5941 C   0  0  0  0  0  0  0  0  0  0  0  0
   30.4046   45.8230   46.8901 C   0  0  0  0  0  0  0  0  0  0  0  0
   31.1453   44.3287   47.4070 Cl  0  0  0  0  0  0  0  0  0  0  0  0
   29.6413   46.5273   47.7956 C   0  0  0  0  0  0  0  0  0  0  0  0
   28.7051   48.5693   49.6947 C   0  0  0  0  0  0  0  0  0  0  0  0
   28.0077   49.2318   50.6637 C   0  0  0  0  0  0  0  0  0  0  0  0
  1  2  2  0
  3  2  1  1
  2  4  1  0
  5  4  1  6
  5  6  1  0
  6 25  2  0
  6  7  1  0
  7  8  2  0
  8  9  1  0
  9 10  1  0
  9 24  2  0
 10 23  1  0
 10 11  2  0
 11 12  1  0
 13 12  1  1
 12 20  2  0
 13 19  1  0
 13 14  1  0
 17 13  1  6
 14 15  1  0
 14 16  2  3
 18 17  1  6
 19 18  1  1
 20 21  1  0
 21 22  1  0
 21 23  2  0
 24 25  1  0
M  CHG  1  16   1
M  END
$$$$
