
     RDKit          3D

 25 27  0  0  0  0  0  0  0  0999 V2000
   16.5987   39.7554   47.5895 O   0  0  0  0  0  0  0  0  0  0  0  0
   17.5886   40.2985   48.1086 C   0  0  0  0  0  0  0  0  0  0  0  0
   18.9536   39.8709   47.6551 C   0  0  0  0  0  0  0  0  0  0  0  0
   17.4898   41.2948   49.1006 N   0  0  0  0  0  0  0  0  0  0  0  0
   16.2370   41.7083   49.6292 C   0  0  0  0  0  0  0  0  0  0  0  0
   16.1592   41.5848   51.0987 C   0  0  0  0  0  0  0  0  0  0  0  0
   17.1806   41.8057   51.9712 C   0  0  0  0  0  0  0  0  0  0  0  0
   17.0612   41.6843   53.3520 C   0  0  0  0  0  0  0  0  0  0  0  0
   15.8410   41.3196   53.8734 C   0  0  0  0  0  0  0  0  0  0  0  0
   15.6198   41.1645   55.3012 C   0  0  0  0  0  0  0  0  0  0  0  0
   14.3709   41.3031   55.8668 C   0  0  0  0  0  0  0  0  0  0  0  0
   14.1328   41.1653   57.2104 C   0  0  0  0  0  0  0  0  0  0  0  0
   12.7969   41.3089   57.8265 C   0  0  1  0  0  0  0  0  0  0  0  0
   12.3594   42.6754   58.1347 C   0  0  0  0  0  0  0  0  0  0  0  0
   11.7860   43.5297   57.1215 N   0  0  0  0  0  0  0  0  0  0  0  0
   12.4556   43.1629   59.3093 N   0  0  0  0  0  4  0  0  0  0  0  0
   11.7161   40.4387   57.2922 C   0  0  0  0  0  0  0  0  0  0  0  0
   11.1809   40.3977   58.7364 C   0  0  0  0  0  0  0  0  0  0  0  0
   12.6727   40.4401   59.1210 C   0  0  0  0  0  0  0  0  0  0  0  0
   15.2031   40.8739   58.0225 C   0  0  0  0  0  0  0  0  0  0  0  0
   16.4890   40.7243   57.4914 C   0  0  0  0  0  0  0  0  0  0  0  0
   17.8753   40.3546   58.4865 Cl  0  0  0  0  0  0  0  0  0  0  0  0
   16.6737   40.8733   56.1340 C   0  0  0  0  0  0  0  0  0  0  0  0
   14.8000   41.0926   53.0145 C   0  0  0  0  0  0  0  0  0  0  0  0
   14.9314   41.2154   51.6610 C   0  0  0  0  0  0  0  0  0  0  0  0
  1  2  2  0
  3  2  1  1
  2  4  1  0
  5  4  1  6
  5  6  1  0
  6 25  2  0
  6  7  1  0
  7  8  2  0
  8  9  1  0
  9 10  1  0
  9 24  2  0
 10 23  1  0
 10 11  2  0
 11 12  1  0
 13 12  1  6
 12 20  2  0
 13 19  1  0
 13 14  1  0
 17 13  1  6
 14 15  1  0
 14 16  2  3
 18 17  1  6
 19 18  1  1
 20 21  1  0
 21 22  1  0
 21 23  2  0
 24 25  1  0
M  CHG  1  16   1
M  END
$$$$
