
     RDKit          3D

 25 27  0  0  0  0  0  0  0  0999 V2000
   22.3979   40.0094   57.2248 O   0  0  0  0  0  0  0  0  0  0  0  0
   22.8060   39.0597   57.9147 C   0  0  0  0  0  0  0  0  0  0  0  0
   22.4875   37.6646   57.4634 C   0  0  0  0  0  0  0  0  0  0  0  0
   23.5523   39.2311   59.0980 N   0  0  0  0  0  0  0  0  0  0  0  0
   23.7876   40.5152   59.6595 C   0  0  0  0  0  0  0  0  0  0  0  0
   23.5295   40.5681   61.1125 C   0  0  0  0  0  0  0  0  0  0  0  0
   22.6285   41.3791   61.7320 C   0  0  0  0  0  0  0  0  0  0  0  0
   22.4122   41.3912   63.1062 C   0  0  0  0  0  0  0  0  0  0  0  0
   23.1494   40.5352   63.8919 C   0  0  0  0  0  0  0  0  0  0  0  0
   22.9964   40.4777   65.3359 C   0  0  0  0  0  0  0  0  0  0  0  0
   24.0507   40.1788   66.1714 C   0  0  0  0  0  0  0  0  0  0  0  0
   23.9353   40.1146   67.5365 C   0  0  0  0  0  0  0  0  0  0  0  0
   25.0602   39.7980   68.4415 C   0  0  1  0  0  0  0  0  0  0  0  0
   25.5009   40.8703   69.3412 C   0  0  0  0  0  0  0  0  0  0  0  0
   25.4555   40.7164   70.7763 N   0  0  0  0  0  0  0  0  0  0  0  0
   25.9525   41.9773   68.8968 N   0  0  0  0  0  4  0  0  0  0  0  0
   25.0545   38.4509   69.0710 C   0  0  0  0  0  0  0  0  0  0  0  0
   26.5894   38.5040   68.9484 C   0  0  0  0  0  0  0  0  0  0  0  0
   26.2992   39.2729   67.6446 C   0  0  0  0  0  0  0  0  0  0  0  0
   22.6999   40.3635   68.0859 C   0  0  0  0  0  0  0  0  0  0  0  0
   21.6014   40.6709   67.2756 C   0  0  0  0  0  0  0  0  0  0  0  0
   20.0157   40.9933   67.9318 Cl  0  0  0  0  0  0  0  0  0  0  0  0
   21.7715   40.7223   65.9092 C   0  0  0  0  0  0  0  0  0  0  0  0
   24.0611   39.7108   63.2903 C   0  0  0  0  0  0  0  0  0  0  0  0
   24.2632   39.7094   61.9400 C   0  0  0  0  0  0  0  0  0  0  0  0
  1  2  2  0
  3  2  1  1
  2  4  1  0
  5  4  1  6
  5  6  1  0
  6 25  2  0
  6  7  1  0
  7  8  2  0
  8  9  1  0
  9 10  1  0
  9 24  2  0
 10 23  1  0
 10 11  2  0
 11 12  1  0
 13 12  1  6
 12 20  2  0
 13 19  1  0
 13 14  1  0
 17 13  1  6
 14 15  1  0
 14 16  2  3
 18 17  1  6
 19 18  1  1
 20 21  1  0
 21 22  1  0
 21 23  2  0
 24 25  1  0
M  CHG  1  16   1
M  END
$$$$
