
     RDKit          3D

 25 27  0  0  0  0  0  0  0  0999 V2000
   16.4907   40.7044   50.1542 O   0  0  0  0  0  0  0  0  0  0  0  0
   16.4136   41.7422   50.8335 C   0  0  0  0  0  0  0  0  0  0  0  0
   16.9757   43.0102   50.2609 C   0  0  0  0  0  0  0  0  0  0  0  0
   15.8241   41.7842   52.1130 N   0  0  0  0  0  0  0  0  0  0  0  0
   15.3328   40.6145   52.7536 C   0  0  0  0  0  0  0  0  0  0  0  0
   14.9422   40.8446   54.1590 C   0  0  0  0  0  0  0  0  0  0  0  0
   13.6683   40.9831   54.6187 C   0  0  0  0  0  0  0  0  0  0  0  0
   13.3445   41.1921   55.9555 C   0  0  0  0  0  0  0  0  0  0  0  0
   14.3678   41.2642   56.8728 C   0  0  0  0  0  0  0  0  0  0  0  0
   14.1291   41.4827   58.2895 C   0  0  0  0  0  0  0  0  0  0  0  0
   12.9380   41.9912   58.7602 C   0  0  0  0  0  0  0  0  0  0  0  0
   12.6858   42.2106   60.0903 C   0  0  0  0  0  0  0  0  0  0  0  0
   11.4109   42.7527   60.6058 C   0  0  1  0  0  0  0  0  0  0  0  0
   11.2509   44.2107   60.5594 C   0  0  0  0  0  0  0  0  0  0  0  0
   10.3695   44.8422   59.6056 N   0  0  0  0  0  0  0  0  0  0  0  0
   11.8722   44.9809   61.3641 N   0  0  0  0  0  4  0  0  0  0  0  0
   10.1752   42.0018   60.2592 C   0  0  0  0  0  0  0  0  0  0  0  0
    9.6602   42.4169   61.6507 C   0  0  0  0  0  0  0  0  0  0  0  0
   11.1365   42.2656   62.0664 C   0  0  0  0  0  0  0  0  0  0  0  0
   13.6800   41.9029   60.9886 C   0  0  0  0  0  0  0  0  0  0  0  0
   14.9053   41.3844   60.5553 C   0  0  0  0  0  0  0  0  0  0  0  0
   16.1942   40.9804   61.6617 Cl  0  0  0  0  0  0  0  0  0  0  0  0
   15.1074   41.1832   59.2072 C   0  0  0  0  0  0  0  0  0  0  0  0
   15.6564   41.1276   56.4328 C   0  0  0  0  0  0  0  0  0  0  0  0
   15.9599   40.9229   55.1174 C   0  0  0  0  0  0  0  0  0  0  0  0
  1  2  2  0
  3  2  1  1
  2  4  1  0
  5  4  1  6
  5  6  1  0
  6 25  2  0
  6  7  1  0
  7  8  2  0
  8  9  1  0
  9 10  1  0
  9 24  2  0
 10 23  1  0
 10 11  2  0
 11 12  1  0
 13 12  1  6
 12 20  2  0
 13 19  1  0
 13 14  1  0
 17 13  1  6
 14 15  1  0
 14 16  2  3
 18 17  1  6
 19 18  1  1
 20 21  1  0
 21 22  1  0
 21 23  2  0
 24 25  1  0
M  CHG  1  16   1
M  END
$$$$
