
     RDKit          3D

 25 27  0  0  0  0  0  0  0  0999 V2000
   28.8878   24.9239   54.3573 O   0  0  0  0  0  0  0  0  0  0  0  0
   30.0650   24.6532   54.6495 C   0  0  0  0  0  0  0  0  0  0  0  0
   30.3404   24.0289   55.9858 C   0  0  0  0  0  0  0  0  0  0  0  0
   31.1508   24.9043   53.7866 N   0  0  0  0  0  0  0  0  0  0  0  0
   30.9630   25.3713   52.4576 C   0  0  0  0  0  0  0  0  0  0  0  0
   32.1434   25.1572   51.5963 C   0  0  0  0  0  0  0  0  0  0  0  0
   33.3499   24.6767   52.0045 C   0  0  0  0  0  0  0  0  0  0  0  0
   34.4353   24.4836   51.1559 C   0  0  0  0  0  0  0  0  0  0  0  0
   34.2874   24.7950   49.8237 C   0  0  0  0  0  0  0  0  0  0  0  0
   35.3641   24.6303   48.8617 C   0  0  0  0  0  0  0  0  0  0  0  0
   36.2187   23.5500   48.8988 C   0  0  0  0  0  0  0  0  0  0  0  0
   37.2447   23.3700   48.0067 C   0  0  0  0  0  0  0  0  0  0  0  0
   38.1648   22.2136   48.0359 C   0  0  1  0  0  0  0  0  0  0  0  0
   39.6002   22.5153   47.9897 C   0  0  0  0  0  0  0  0  0  0  0  0
   40.5454   21.5950   47.4022 N   0  0  0  0  0  0  0  0  0  0  0  0
   40.0732   23.6048   48.4545 N   0  0  0  0  0  4  0  0  0  0  0  0
   37.8144   21.1023   48.9596 C   0  0  0  0  0  0  0  0  0  0  0  0
   38.4107   20.1671   47.8901 C   0  0  0  0  0  0  0  0  0  0  0  0
   37.8311   21.1941   46.8978 C   0  0  0  0  0  0  0  0  0  0  0  0
   37.4177   24.3229   47.0310 C   0  0  0  0  0  0  0  0  0  0  0  0
   36.5735   25.4363   46.9555 C   0  0  0  0  0  0  0  0  0  0  0  0
   36.7581   26.6694   45.7332 Cl  0  0  0  0  0  0  0  0  0  0  0  0
   35.5577   25.5694   47.8770 C   0  0  0  0  0  0  0  0  0  0  0  0
   33.0828   25.2797   49.3912 C   0  0  0  0  0  0  0  0  0  0  0  0
   32.0257   25.4642   50.2354 C   0  0  0  0  0  0  0  0  0  0  0  0
  1  2  2  0
  3  2  1  1
  2  4  1  0
  5  4  1  6
  5  6  1  0
  6 25  2  0
  6  7  1  0
  7  8  2  0
  8  9  1  0
  9 10  1  0
  9 24  2  0
 10 23  1  0
 10 11  2  0
 11 12  1  0
 13 12  1  1
 12 20  2  0
 13 19  1  0
 13 14  1  0
 17 13  1  6
 14 15  1  0
 14 16  2  3
 18 17  1  6
 19 18  1  1
 20 21  1  0
 21 22  1  0
 21 23  2  0
 24 25  1  0
M  CHG  1  16   1
M  END
$$$$
