
     RDKit          3D

 25 27  0  0  0  0  0  0  0  0999 V2000
   33.7234   53.9594   52.3545 O   0  0  0  0  0  0  0  0  0  0  0  0
   34.3541   53.2230   51.5771 C   0  0  0  0  0  0  0  0  0  0  0  0
   35.8470   53.3621   51.5198 C   0  0  0  0  0  0  0  0  0  0  0  0
   33.7345   52.2655   50.7489 N   0  0  0  0  0  0  0  0  0  0  0  0
   32.3221   52.1946   50.6074 C   0  0  0  0  0  0  0  0  0  0  0  0
   31.8878   51.1652   49.6418 C   0  0  0  0  0  0  0  0  0  0  0  0
   32.6987   50.2694   49.0148 C   0  0  0  0  0  0  0  0  0  0  0  0
   32.2453   49.3097   48.1153 C   0  0  0  0  0  0  0  0  0  0  0  0
   30.8984   49.2574   47.8385 C   0  0  0  0  0  0  0  0  0  0  0  0
   30.3312   48.2928   46.9113 C   0  0  0  0  0  0  0  0  0  0  0  0
   29.5000   48.6719   45.8797 C   0  0  0  0  0  0  0  0  0  0  0  0
   28.9482   47.7841   44.9918 C   0  0  0  0  0  0  0  0  0  0  0  0
   28.0580   48.1805   43.8804 C   0  0  1  0  0  0  0  0  0  0  0  0
   28.6473   49.0286   42.8378 C   0  0  0  0  0  0  0  0  0  0  0  0
   29.8104   48.6082   42.0923 N   0  0  0  0  0  0  0  0  0  0  0  0
   28.1531   50.1654   42.5374 N   0  0  0  0  0  4  0  0  0  0  0  0
   27.1364   47.1380   43.3563 C   0  0  0  0  0  0  0  0  0  0  0  0
   26.1363   48.2877   43.1287 C   0  0  0  0  0  0  0  0  0  0  0  0
   26.7594   48.8709   44.4120 C   0  0  0  0  0  0  0  0  0  0  0  0
   29.2482   46.4519   45.1503 C   0  0  0  0  0  0  0  0  0  0  0  0
   30.0878   46.0218   46.1838 C   0  0  0  0  0  0  0  0  0  0  0  0
   30.4942   44.3404   46.4210 Cl  0  0  0  0  0  0  0  0  0  0  0  0
   30.6159   46.9553   47.0489 C   0  0  0  0  0  0  0  0  0  0  0  0
   30.0645   50.1486   48.4576 C   0  0  0  0  0  0  0  0  0  0  0  0
   30.5233   51.0856   49.3385 C   0  0  0  0  0  0  0  0  0  0  0  0
  1  2  2  0
  3  2  1  1
  2  4  1  0
  5  4  1  6
  5  6  1  0
  6 25  2  0
  6  7  1  0
  7  8  2  0
  8  9  1  0
  9 10  1  0
  9 24  2  0
 10 23  1  0
 10 11  2  0
 11 12  1  0
 13 12  1  1
 12 20  2  0
 13 19  1  0
 13 14  1  0
 17 13  1  6
 14 15  1  0
 14 16  2  3
 18 17  1  6
 19 18  1  1
 20 21  1  0
 21 22  1  0
 21 23  2  0
 24 25  1  0
M  CHG  1  16   1
M  END
$$$$
