
     RDKit          3D

 25 27  0  0  0  0  0  0  0  0999 V2000
   22.7559   41.5058   75.9609 O   0  0  0  0  0  0  0  0  0  0  0  0
   23.5818   40.6375   75.6317 C   0  0  0  0  0  0  0  0  0  0  0  0
   24.1231   39.7307   76.6976 C   0  0  0  0  0  0  0  0  0  0  0  0
   24.0326   40.4648   74.3076 N   0  0  0  0  0  0  0  0  0  0  0  0
   23.6681   41.3604   73.2660 C   0  0  0  0  0  0  0  0  0  0  0  0
   24.1905   40.9560   71.9453 C   0  0  0  0  0  0  0  0  0  0  0  0
   23.8825   39.8057   71.2856 C   0  0  0  0  0  0  0  0  0  0  0  0
   24.3935   39.4671   70.0367 C   0  0  0  0  0  0  0  0  0  0  0  0
   25.2624   40.3424   69.4263 C   0  0  0  0  0  0  0  0  0  0  0  0
   25.8499   40.0749   68.1244 C   0  0  0  0  0  0  0  0  0  0  0  0
   27.2047   40.1830   67.8976 C   0  0  0  0  0  0  0  0  0  0  0  0
   27.7865   39.9400   66.6796 C   0  0  0  0  0  0  0  0  0  0  0  0
   29.2386   40.0501   66.4265 C   0  0  1  0  0  0  0  0  0  0  0  0
   29.6731   41.1568   65.5664 C   0  0  0  0  0  0  0  0  0  0  0  0
   30.2516   42.3589   66.1193 N   0  0  0  0  0  0  0  0  0  0  0  0
   29.5697   41.1014   64.2963 N   0  0  0  0  0  4  0  0  0  0  0  0
   30.1405   39.7977   67.5814 C   0  0  0  0  0  0  0  0  0  0  0  0
   31.1092   39.1817   66.5538 C   0  0  0  0  0  0  0  0  0  0  0  0
   29.8177   38.7148   65.8543 C   0  0  0  0  0  0  0  0  0  0  0  0
   26.9647   39.5701   65.6413 C   0  0  0  0  0  0  0  0  0  0  0  0
   25.5832   39.4478   65.8262 C   0  0  0  0  0  0  0  0  0  0  0  0
   24.5040   38.9812   64.5353 Cl  0  0  0  0  0  0  0  0  0  0  0  0
   25.0494   39.7039   67.0705 C   0  0  0  0  0  0  0  0  0  0  0  0
   25.5861   41.5051   70.0715 C   0  0  0  0  0  0  0  0  0  0  0  0
   25.0770   41.8248   71.2974 C   0  0  0  0  0  0  0  0  0  0  0  0
  1  2  2  0
  3  2  1  1
  2  4  1  0
  5  4  1  6
  5  6  1  0
  6 25  2  0
  6  7  1  0
  7  8  2  0
  8  9  1  0
  9 10  1  0
  9 24  2  0
 10 23  1  0
 10 11  2  0
 11 12  1  0
 13 12  1  1
 12 20  2  0
 13 19  1  0
 13 14  1  0
 17 13  1  6
 14 15  1  0
 14 16  2  3
 18 17  1  6
 19 18  1  1
 20 21  1  0
 21 22  1  0
 21 23  2  0
 24 25  1  0
M  CHG  1  16   1
M  END
$$$$
