
     RDKit          3D

 25 27  0  0  0  0  0  0  0  0999 V2000
   29.0303   39.1314   67.6530 O   0  0  0  0  0  0  0  0  0  0  0  0
   28.9225   39.3504   68.8716 C   0  0  0  0  0  0  0  0  0  0  0  0
   29.7197   38.5034   69.8194 C   0  0  0  0  0  0  0  0  0  0  0  0
   28.0889   40.3547   69.4037 N   0  0  0  0  0  0  0  0  0  0  0  0
   27.0395   40.9410   68.6455 C   0  0  0  0  0  0  0  0  0  0  0  0
   25.7565   40.9916   69.3750 C   0  0  0  0  0  0  0  0  0  0  0  0
   25.3789   41.9591   70.2551 C   0  0  0  0  0  0  0  0  0  0  0  0
   24.1548   41.9712   70.9163 C   0  0  0  0  0  0  0  0  0  0  0  0
   23.2686   40.9476   70.6707 C   0  0  0  0  0  0  0  0  0  0  0  0
   21.9684   40.8724   71.3152 C   0  0  0  0  0  0  0  0  0  0  0  0
   21.8032   41.1252   72.6597 C   0  0  0  0  0  0  0  0  0  0  0  0
   20.5896   41.0590   73.2952 C   0  0  0  0  0  0  0  0  0  0  0  0
   20.4012   41.3312   74.7357 C   0  0  1  0  0  0  0  0  0  0  0  0
   19.6752   40.3151   75.5064 C   0  0  0  0  0  0  0  0  0  0  0  0
   20.3486   39.1613   76.0549 N   0  0  0  0  0  0  0  0  0  0  0  0
   18.4240   40.4116   75.7347 N   0  0  0  0  0  4  0  0  0  0  0  0
   21.5555   41.9240   75.4617 C   0  0  0  0  0  0  0  0  0  0  0  0
   20.5053   42.6891   76.2897 C   0  0  0  0  0  0  0  0  0  0  0  0
   19.7160   42.7180   74.9663 C   0  0  0  0  0  0  0  0  0  0  0  0
   19.4907   40.7227   72.5407 C   0  0  0  0  0  0  0  0  0  0  0  0
   19.6118   40.4576   71.1722 C   0  0  0  0  0  0  0  0  0  0  0  0
   18.2427   40.0270   70.1777 Cl  0  0  0  0  0  0  0  0  0  0  0  0
   20.8546   40.5379   70.5826 C   0  0  0  0  0  0  0  0  0  0  0  0
   23.6275   39.9640   69.7893 C   0  0  0  0  0  0  0  0  0  0  0  0
   24.8325   39.9646   69.1473 C   0  0  0  0  0  0  0  0  0  0  0  0
  1  2  2  0
  3  2  1  1
  2  4  1  0
  5  4  1  6
  5  6  1  0
  6 25  2  0
  6  7  1  0
  7  8  2  0
  8  9  1  0
  9 10  1  0
  9 24  2  0
 10 23  1  0
 10 11  2  0
 11 12  1  0
 13 12  1  6
 12 20  2  0
 13 19  1  0
 13 14  1  0
 17 13  1  6
 14 15  1  0
 14 16  2  3
 18 17  1  6
 19 18  1  1
 20 21  1  0
 21 22  1  0
 21 23  2  0
 24 25  1  0
M  CHG  1  16   1
M  END
$$$$
