
     RDKit          3D

 25 27  0  0  0  0  0  0  0  0999 V2000
   20.3145   39.6394   62.4035 O   0  0  0  0  0  0  0  0  0  0  0  0
   19.2645   40.3022   62.3533 C   0  0  0  0  0  0  0  0  0  0  0  0
   18.8681   41.0988   63.5615 C   0  0  0  0  0  0  0  0  0  0  0  0
   18.4308   40.3411   61.2175 N   0  0  0  0  0  0  0  0  0  0  0  0
   18.7286   39.6028   60.0402 C   0  0  0  0  0  0  0  0  0  0  0  0
   18.0218   40.1074   58.8459 C   0  0  0  0  0  0  0  0  0  0  0  0
   18.5622   40.8919   57.8733 C   0  0  0  0  0  0  0  0  0  0  0  0
   17.8602   41.3399   56.7588 C   0  0  0  0  0  0  0  0  0  0  0  0
   16.5409   40.9720   56.6255 C   0  0  0  0  0  0  0  0  0  0  0  0
   15.7257   41.3927   55.4985 C   0  0  0  0  0  0  0  0  0  0  0  0
   14.4290   41.8309   55.6574 C   0  0  0  0  0  0  0  0  0  0  0  0
   13.6355   42.2310   54.6128 C   0  0  0  0  0  0  0  0  0  0  0  0
   12.2448   42.7055   54.7727 C   0  0  1  0  0  0  0  0  0  0  0  0
   11.3058   41.7808   55.4183 C   0  0  0  0  0  0  0  0  0  0  0  0
   10.7398   40.6607   54.7039 N   0  0  0  0  0  0  0  0  0  0  0  0
   10.9583   41.9185   56.6377 N   0  0  0  0  0  4  0  0  0  0  0  0
   12.0639   44.1246   55.1779 C   0  0  0  0  0  0  0  0  0  0  0  0
   10.8060   44.1072   54.2885 C   0  0  0  0  0  0  0  0  0  0  0  0
   11.6390   43.1589   53.4041 C   0  0  0  0  0  0  0  0  0  0  0  0
   14.1739   42.1881   53.3485 C   0  0  0  0  0  0  0  0  0  0  0  0
   15.4864   41.7501   53.1403 C   0  0  0  0  0  0  0  0  0  0  0  0
   16.2086   41.6798   51.5521 Cl  0  0  0  0  0  0  0  0  0  0  0  0
   16.2410   41.3588   54.2248 C   0  0  0  0  0  0  0  0  0  0  0  0
   15.9770   40.1835   57.5915 C   0  0  0  0  0  0  0  0  0  0  0  0
   16.6779   39.7510   58.6805 C   0  0  0  0  0  0  0  0  0  0  0  0
  1  2  2  0
  3  2  1  1
  2  4  1  0
  5  4  1  6
  5  6  1  0
  6 25  2  0
  6  7  1  0
  7  8  2  0
  8  9  1  0
  9 10  1  0
  9 24  2  0
 10 23  1  0
 10 11  2  0
 11 12  1  0
 13 12  1  6
 12 20  2  0
 13 19  1  0
 13 14  1  0
 17 13  1  6
 14 15  1  0
 14 16  2  3
 18 17  1  6
 19 18  1  1
 20 21  1  0
 21 22  1  0
 21 23  2  0
 24 25  1  0
M  CHG  1  16   1
M  END
$$$$
