
     RDKit          3D

 25 27  0  0  0  0  0  0  0  0999 V2000
    9.4288   46.0027   61.3117 O   0  0  0  0  0  0  0  0  0  0  0  0
    9.4220   44.8198   60.9307 C   0  0  0  0  0  0  0  0  0  0  0  0
    8.8042   43.7876   61.8275 C   0  0  0  0  0  0  0  0  0  0  0  0
    9.9656   44.4034   59.6988 N   0  0  0  0  0  0  0  0  0  0  0  0
   10.7057   45.2862   58.8664 C   0  0  0  0  0  0  0  0  0  0  0  0
   11.6848   44.5888   58.0086 C   0  0  0  0  0  0  0  0  0  0  0  0
   12.5334   45.1819   57.1247 C   0  0  0  0  0  0  0  0  0  0  0  0
   13.4469   44.4854   56.3397 C   0  0  0  0  0  0  0  0  0  0  0  0
   13.5009   43.1156   56.4587 C   0  0  0  0  0  0  0  0  0  0  0  0
   14.4191   42.3022   55.6796 C   0  0  0  0  0  0  0  0  0  0  0  0
   14.4584   42.3589   54.3033 C   0  0  0  0  0  0  0  0  0  0  0  0
   15.3116   41.6016   53.5422 C   0  0  0  0  0  0  0  0  0  0  0  0
   15.3638   41.6570   52.0660 C   0  0  1  0  0  0  0  0  0  0  0  0
   14.4918   40.7243   51.3427 C   0  0  0  0  0  0  0  0  0  0  0  0
   13.2530   41.1616   50.7431 N   0  0  0  0  0  0  0  0  0  0  0  0
   14.7939   39.4931   51.2026 N   0  0  0  0  0  4  0  0  0  0  0  0
   15.4411   43.0076   51.4490 C   0  0  0  0  0  0  0  0  0  0  0  0
   16.3245   42.3486   50.3724 C   0  0  0  0  0  0  0  0  0  0  0  0
   16.8272   41.4813   51.5430 C   0  0  0  0  0  0  0  0  0  0  0  0
   16.1658   40.7472   54.1983 C   0  0  0  0  0  0  0  0  0  0  0  0
   16.1604   40.6571   55.5946 C   0  0  0  0  0  0  0  0  0  0  0  0
   17.2278   39.5856   56.4673 Cl  0  0  0  0  0  0  0  0  0  0  0  0
   15.2827   41.4403   56.3122 C   0  0  0  0  0  0  0  0  0  0  0  0
   12.6567   42.4982   57.3414 C   0  0  0  0  0  0  0  0  0  0  0  0
   11.7648   43.1943   58.1058 C   0  0  0  0  0  0  0  0  0  0  0  0
  1  2  2  0
  3  2  1  1
  2  4  1  0
  5  4  1  6
  5  6  1  0
  6 25  2  0
  6  7  1  0
  7  8  2  0
  8  9  1  0
  9 10  1  0
  9 24  2  0
 10 23  1  0
 10 11  2  0
 11 12  1  0
 13 12  1  1
 12 20  2  0
 13 19  1  0
 13 14  1  0
 17 13  1  6
 14 15  1  0
 14 16  2  3
 18 17  1  6
 19 18  1  1
 20 21  1  0
 21 22  1  0
 21 23  2  0
 24 25  1  0
M  CHG  1  16   1
M  END
$$$$
