
     RDKit          3D

 25 27  0  0  0  0  0  0  0  0999 V2000
   22.1000   49.9303   49.3628 O   0  0  0  0  0  0  0  0  0  0  0  0
   22.4844   49.5351   48.2490 C   0  0  0  0  0  0  0  0  0  0  0  0
   21.4595   49.3428   47.1701 C   0  0  0  0  0  0  0  0  0  0  0  0
   23.8345   49.2599   47.9524 N   0  0  0  0  0  0  0  0  0  0  0  0
   24.8881   49.6272   48.8326 C   0  0  0  0  0  0  0  0  0  0  0  0
   26.2252   49.2740   48.3147 C   0  0  0  0  0  0  0  0  0  0  0  0
   26.4838   48.6824   47.1162 C   0  0  0  0  0  0  0  0  0  0  0  0
   27.7625   48.3730   46.6638 C   0  0  0  0  0  0  0  0  0  0  0  0
   28.8340   48.6803   47.4707 C   0  0  0  0  0  0  0  0  0  0  0  0
   30.2056   48.3932   47.0861 C   0  0  0  0  0  0  0  0  0  0  0  0
   31.1671   49.3779   47.0178 C   0  0  0  0  0  0  0  0  0  0  0  0
   32.4677   49.1371   46.6553 C   0  0  0  0  0  0  0  0  0  0  0  0
   33.5072   50.1853   46.5818 C   0  0  1  0  0  0  0  0  0  0  0  0
   33.3777   51.1634   45.4954 C   0  0  0  0  0  0  0  0  0  0  0  0
   32.8240   52.4770   45.7259 N   0  0  0  0  0  0  0  0  0  0  0  0
   33.7576   50.9013   44.3064 N   0  0  0  0  0  4  0  0  0  0  0  0
   33.9549   50.7758   47.8709 C   0  0  0  0  0  0  0  0  0  0  0  0
   35.3479   50.8742   47.2198 C   0  0  0  0  0  0  0  0  0  0  0  0
   34.9398   49.5608   46.5243 C   0  0  0  0  0  0  0  0  0  0  0  0
   32.8162   47.8433   46.3475 C   0  0  0  0  0  0  0  0  0  0  0  0
   31.8726   46.8117   46.4035 C   0  0  0  0  0  0  0  0  0  0  0  0
   32.2727   45.1557   46.0207 Cl  0  0  0  0  0  0  0  0  0  0  0  0
   30.5787   47.1079   46.7735 C   0  0  0  0  0  0  0  0  0  0  0  0
   28.5972   49.2755   48.6801 C   0  0  0  0  0  0  0  0  0  0  0  0
   27.3366   49.5737   49.1117 C   0  0  0  0  0  0  0  0  0  0  0  0
  1  2  2  0
  3  2  1  1
  2  4  1  0
  5  4  1  6
  5  6  1  0
  6 25  2  0
  6  7  1  0
  7  8  2  0
  8  9  1  0
  9 10  1  0
  9 24  2  0
 10 23  1  0
 10 11  2  0
 11 12  1  0
 13 12  1  1
 12 20  2  0
 13 19  1  0
 13 14  1  0
 17 13  1  6
 14 15  1  0
 14 16  2  3
 18 17  1  6
 19 18  1  1
 20 21  1  0
 21 22  1  0
 21 23  2  0
 24 25  1  0
M  CHG  1  16   1
M  END
$$$$
