
     RDKit          3D

 25 27  0  0  0  0  0  0  0  0999 V2000
   16.5175   41.5491   60.2301 O   0  0  0  0  0  0  0  0  0  0  0  0
   15.3858   41.2812   59.7921 C   0  0  0  0  0  0  0  0  0  0  0  0
   14.2774   42.2620   60.0390 C   0  0  0  0  0  0  0  0  0  0  0  0
   15.0953   40.1027   59.0757 N   0  0  0  0  0  0  0  0  0  0  0  0
   16.1156   39.2067   58.6560 C   0  0  0  0  0  0  0  0  0  0  0  0
   16.4405   39.3306   57.2208 C   0  0  0  0  0  0  0  0  0  0  0  0
   15.9211   40.2518   56.3636 C   0  0  0  0  0  0  0  0  0  0  0  0
   16.2614   40.3373   55.0174 C   0  0  0  0  0  0  0  0  0  0  0  0
   17.1767   39.4404   54.5159 C   0  0  0  0  0  0  0  0  0  0  0  0
   17.5923   39.4490   53.1234 C   0  0  0  0  0  0  0  0  0  0  0  0
   16.6951   39.6327   52.0938 C   0  0  0  0  0  0  0  0  0  0  0  0
   17.0578   39.6426   50.7712 C   0  0  0  0  0  0  0  0  0  0  0  0
   16.1041   39.8418   49.6597 C   0  0  1  0  0  0  0  0  0  0  0  0
   16.2776   41.0571   48.8556 C   0  0  0  0  0  0  0  0  0  0  0  0
   16.0054   42.3665   49.4002 N   0  0  0  0  0  0  0  0  0  0  0  0
   16.6859   41.0113   47.6481 N   0  0  0  0  0  4  0  0  0  0  0  0
   15.7459   38.6397   48.8612 C   0  0  0  0  0  0  0  0  0  0  0  0
   14.3456   39.2704   48.7373 C   0  0  0  0  0  0  0  0  0  0  0  0
   14.6248   39.7826   50.1638 C   0  0  0  0  0  0  0  0  0  0  0  0
   18.3870   39.4591   50.4717 C   0  0  0  0  0  0  0  0  0  0  0  0
   19.3329   39.2690   51.4851 C   0  0  0  0  0  0  0  0  0  0  0  0
   21.0298   39.0323   51.1489 Cl  0  0  0  0  0  0  0  0  0  0  0  0
   18.9153   39.2675   52.7983 C   0  0  0  0  0  0  0  0  0  0  0  0
   17.7118   38.5053   55.3598 C   0  0  0  0  0  0  0  0  0  0  0  0
   17.3686   38.4328   56.6794 C   0  0  0  0  0  0  0  0  0  0  0  0
  1  2  2  0
  3  2  1  1
  2  4  1  0
  5  4  1  6
  5  6  1  0
  6 25  2  0
  6  7  1  0
  7  8  2  0
  8  9  1  0
  9 10  1  0
  9 24  2  0
 10 23  1  0
 10 11  2  0
 11 12  1  0
 13 12  1  1
 12 20  2  0
 13 19  1  0
 13 14  1  0
 17 13  1  6
 14 15  1  0
 14 16  2  3
 18 17  1  6
 19 18  1  1
 20 21  1  0
 21 22  1  0
 21 23  2  0
 24 25  1  0
M  CHG  1  16   1
M  END
$$$$
