
     RDKit          3D

 25 27  0  0  0  0  0  0  0  0999 V2000
   25.7817   48.1494   72.0108 O   0  0  0  0  0  0  0  0  0  0  0  0
   24.6162   48.5034   72.2572 C   0  0  0  0  0  0  0  0  0  0  0  0
   24.2907   48.9583   73.6495 C   0  0  0  0  0  0  0  0  0  0  0  0
   23.5885   48.4981   71.2926 N   0  0  0  0  0  0  0  0  0  0  0  0
   23.7410   47.8547   70.0346 C   0  0  0  0  0  0  0  0  0  0  0  0
   22.7272   46.8086   69.7925 C   0  0  0  0  0  0  0  0  0  0  0  0
   22.9836   45.5021   69.5085 C   0  0  0  0  0  0  0  0  0  0  0  0
   21.9955   44.5466   69.2939 C   0  0  0  0  0  0  0  0  0  0  0  0
   20.6787   44.9385   69.3716 C   0  0  0  0  0  0  0  0  0  0  0  0
   19.5777   44.0140   69.1600 C   0  0  0  0  0  0  0  0  0  0  0  0
   18.4530   44.3677   68.4469 C   0  0  0  0  0  0  0  0  0  0  0  0
   17.3978   43.5179   68.2338 C   0  0  0  0  0  0  0  0  0  0  0  0
   16.1884   43.8863   67.4680 C   0  0  1  0  0  0  0  0  0  0  0  0
   16.4055   44.4794   66.1434 C   0  0  0  0  0  0  0  0  0  0  0  0
   17.2826   45.6116   65.9591 N   0  0  0  0  0  0  0  0  0  0  0  0
   15.8398   44.0156   65.0985 N   0  0  0  0  0  4  0  0  0  0  0  0
   15.0474   42.9343   67.5198 C   0  0  0  0  0  0  0  0  0  0  0  0
   14.1432   44.1804   67.4592 C   0  0  0  0  0  0  0  0  0  0  0  0
   15.2603   44.8352   68.2950 C   0  0  0  0  0  0  0  0  0  0  0  0
   17.4797   42.2520   68.7638 C   0  0  0  0  0  0  0  0  0  0  0  0
   18.6030   41.8498   69.4948 C   0  0  0  0  0  0  0  0  0  0  0  0
   18.7476   40.2525   70.1849 Cl  0  0  0  0  0  0  0  0  0  0  0  0
   19.6358   42.7431   69.6799 C   0  0  0  0  0  0  0  0  0  0  0  0
   20.3977   46.2474   69.6559 C   0  0  0  0  0  0  0  0  0  0  0  0
   21.3778   47.1749   69.8643 C   0  0  0  0  0  0  0  0  0  0  0  0
  1  2  2  0
  3  2  1  1
  2  4  1  0
  5  4  1  6
  5  6  1  0
  6 25  2  0
  6  7  1  0
  7  8  2  0
  8  9  1  0
  9 10  1  0
  9 24  2  0
 10 23  1  0
 10 11  2  0
 11 12  1  0
 13 12  1  1
 12 20  2  0
 13 19  1  0
 13 14  1  0
 17 13  1  6
 14 15  1  0
 14 16  2  3
 18 17  1  6
 19 18  1  1
 20 21  1  0
 21 22  1  0
 21 23  2  0
 24 25  1  0
M  CHG  1  16   1
M  END
$$$$
