
     RDKit          3D

 25 27  0  0  0  0  0  0  0  0999 V2000
   22.0520   51.0657   51.0553 O   0  0  0  0  0  0  0  0  0  0  0  0
   22.0504   50.2132   50.1511 C   0  0  0  0  0  0  0  0  0  0  0  0
   20.7334   49.6412   49.7155 C   0  0  0  0  0  0  0  0  0  0  0  0
   23.2246   49.7598   49.5169 N   0  0  0  0  0  0  0  0  0  0  0  0
   24.5132   50.2177   49.9036 C   0  0  0  0  0  0  0  0  0  0  0  0
   25.6051   49.6006   49.1241 C   0  0  0  0  0  0  0  0  0  0  0  0
   25.4557   48.6606   48.1509 C   0  0  0  0  0  0  0  0  0  0  0  0
   26.5140   48.1100   47.4351 C   0  0  0  0  0  0  0  0  0  0  0  0
   27.7903   48.5365   47.7229 C   0  0  0  0  0  0  0  0  0  0  0  0
   28.9586   48.0181   47.0315 C   0  0  0  0  0  0  0  0  0  0  0  0
   29.8019   48.8336   46.3086 C   0  0  0  0  0  0  0  0  0  0  0  0
   30.9093   48.3723   45.6439 C   0  0  0  0  0  0  0  0  0  0  0  0
   31.8217   49.2388   44.8685 C   0  0  1  0  0  0  0  0  0  0  0  0
   33.0634   49.6479   45.5351 C   0  0  0  0  0  0  0  0  0  0  0  0
   33.0955   50.7660   46.4484 N   0  0  0  0  0  0  0  0  0  0  0  0
   34.1627   49.0291   45.3467 N   0  0  0  0  0  4  0  0  0  0  0  0
   31.9934   48.9113   43.4283 C   0  0  0  0  0  0  0  0  0  0  0  0
   32.1137   50.4312   43.2063 C   0  0  0  0  0  0  0  0  0  0  0  0
   31.0863   50.5188   44.3518 C   0  0  0  0  0  0  0  0  0  0  0  0
   31.1801   47.0262   45.7109 C   0  0  0  0  0  0  0  0  0  0  0  0
   30.3512   46.1609   46.4334 C   0  0  0  0  0  0  0  0  0  0  0  0
   30.6584   44.4457   46.5442 Cl  0  0  0  0  0  0  0  0  0  0  0  0
   29.2506   46.6761   47.0832 C   0  0  0  0  0  0  0  0  0  0  0  0
   27.9640   49.4810   48.6979 C   0  0  0  0  0  0  0  0  0  0  0  0
   26.9160   50.0130   49.3928 C   0  0  0  0  0  0  0  0  0  0  0  0
  1  2  2  0
  3  2  1  1
  2  4  1  0
  5  4  1  6
  5  6  1  0
  6 25  2  0
  6  7  1  0
  7  8  2  0
  8  9  1  0
  9 10  1  0
  9 24  2  0
 10 23  1  0
 10 11  2  0
 11 12  1  0
 13 12  1  1
 12 20  2  0
 13 19  1  0
 13 14  1  0
 17 13  1  6
 14 15  1  0
 14 16  2  3
 18 17  1  6
 19 18  1  1
 20 21  1  0
 21 22  1  0
 21 23  2  0
 24 25  1  0
M  CHG  1  16   1
M  END
$$$$
