
     RDKit          3D

 25 27  0  0  0  0  0  0  0  0999 V2000
   10.5300   40.2316   81.7780 O   0  0  0  0  0  0  0  0  0  0  0  0
   11.1949   39.2754   81.3444 C   0  0  0  0  0  0  0  0  0  0  0  0
   10.8703   37.8987   81.8449 C   0  0  0  0  0  0  0  0  0  0  0  0
   12.2368   39.4231   80.4068 N   0  0  0  0  0  0  0  0  0  0  0  0
   12.6045   40.6926   79.8845 C   0  0  0  0  0  0  0  0  0  0  0  0
   13.6325   40.6085   78.8277 C   0  0  0  0  0  0  0  0  0  0  0  0
   13.8160   39.5614   77.9773 C   0  0  0  0  0  0  0  0  0  0  0  0
   14.7950   39.5269   76.9893 C   0  0  0  0  0  0  0  0  0  0  0  0
   15.6308   40.6121   76.8586 C   0  0  0  0  0  0  0  0  0  0  0  0
   16.6842   40.6673   75.8590 C   0  0  0  0  0  0  0  0  0  0  0  0
   17.9363   41.1672   76.1434 C   0  0  0  0  0  0  0  0  0  0  0  0
   18.9483   41.2344   75.2202 C   0  0  0  0  0  0  0  0  0  0  0  0
   20.2955   41.7659   75.5157 C   0  0  1  0  0  0  0  0  0  0  0  0
   20.9724   41.2191   76.6974 C   0  0  0  0  0  0  0  0  0  0  0  0
   20.8334   41.8329   77.9971 N   0  0  0  0  0  0  0  0  0  0  0  0
   21.7016   40.1747   76.6309 N   0  0  0  0  0  4  0  0  0  0  0  0
   21.1982   41.9854   74.3547 C   0  0  0  0  0  0  0  0  0  0  0  0
   21.7343   43.1998   75.1369 C   0  0  0  0  0  0  0  0  0  0  0  0
   20.2783   43.3258   75.6263 C   0  0  0  0  0  0  0  0  0  0  0  0
   18.6867   40.7759   73.9508 C   0  0  0  0  0  0  0  0  0  0  0  0
   17.4295   40.2599   73.6175 C   0  0  0  0  0  0  0  0  0  0  0  0
   17.0551   39.6675   72.0182 Cl  0  0  0  0  0  0  0  0  0  0  0  0
   16.4473   40.2152   74.5829 C   0  0  0  0  0  0  0  0  0  0  0  0
   15.4643   41.6761   77.7030 C   0  0  0  0  0  0  0  0  0  0  0  0
   14.4991   41.6966   78.6686 C   0  0  0  0  0  0  0  0  0  0  0  0
  1  2  2  0
  3  2  1  1
  2  4  1  0
  5  4  1  6
  5  6  1  0
  6 25  2  0
  6  7  1  0
  7  8  2  0
  8  9  1  0
  9 10  1  0
  9 24  2  0
 10 23  1  0
 10 11  2  0
 11 12  1  0
 13 12  1  6
 12 20  2  0
 13 19  1  0
 13 14  1  0
 17 13  1  6
 14 15  1  0
 14 16  2  3
 18 17  1  6
 19 18  1  1
 20 21  1  0
 21 22  1  0
 21 23  2  0
 24 25  1  0
M  CHG  1  16   1
M  END
$$$$
