
     RDKit          3D

 25 27  0  0  0  0  0  0  0  0999 V2000
   17.5995   40.9686   56.3490 O   0  0  0  0  0  0  0  0  0  0  0  0
   18.4060   40.9005   57.2920 C   0  0  0  0  0  0  0  0  0  0  0  0
   19.8331   41.2875   57.0364 C   0  0  0  0  0  0  0  0  0  0  0  0
   18.0442   40.4782   58.5871 N   0  0  0  0  0  0  0  0  0  0  0  0
   16.6965   40.1919   58.9358 C   0  0  0  0  0  0  0  0  0  0  0  0
   16.3462   40.6302   60.3018 C   0  0  0  0  0  0  0  0  0  0  0  0
   17.2268   40.8625   61.3136 C   0  0  0  0  0  0  0  0  0  0  0  0
   16.8529   41.2822   62.5863 C   0  0  0  0  0  0  0  0  0  0  0  0
   15.5152   41.4758   62.8444 C   0  0  0  0  0  0  0  0  0  0  0  0
   15.0280   41.9099   64.1428 C   0  0  0  0  0  0  0  0  0  0  0  0
   13.9567   42.7668   64.2725 C   0  0  0  0  0  0  0  0  0  0  0  0
   13.4772   43.1955   65.4837 C   0  0  0  0  0  0  0  0  0  0  0  0
   12.3272   44.1120   65.6339 C   0  0  1  0  0  0  0  0  0  0  0  0
   11.0399   43.6414   65.1094 C   0  0  0  0  0  0  0  0  0  0  0  0
   10.5237   42.3340   65.4403 N   0  0  0  0  0  0  0  0  0  0  0  0
   10.3174   44.3683   64.3501 N   0  0  0  0  0  4  0  0  0  0  0  0
   12.2184   44.8442   66.9233 C   0  0  0  0  0  0  0  0  0  0  0  0
   11.6476   46.0089   66.0917 C   0  0  0  0  0  0  0  0  0  0  0  0
   12.6357   45.5155   65.0168 C   0  0  0  0  0  0  0  0  0  0  0  0
   14.1061   42.7392   66.6178 C   0  0  0  0  0  0  0  0  0  0  0  0
   15.1976   41.8678   66.5335 C   0  0  0  0  0  0  0  0  0  0  0  0
   16.0251   41.2648   67.9479 Cl  0  0  0  0  0  0  0  0  0  0  0  0
   15.6400   41.4678   65.2913 C   0  0  0  0  0  0  0  0  0  0  0  0
   14.6121   41.2481   61.8417 C   0  0  0  0  0  0  0  0  0  0  0  0
   14.9931   40.8363   60.5969 C   0  0  0  0  0  0  0  0  0  0  0  0
  1  2  2  0
  3  2  1  1
  2  4  1  0
  5  4  1  6
  5  6  1  0
  6 25  2  0
  6  7  1  0
  7  8  2  0
  8  9  1  0
  9 10  1  0
  9 24  2  0
 10 23  1  0
 10 11  2  0
 11 12  1  0
 13 12  1  1
 12 20  2  0
 13 19  1  0
 13 14  1  0
 17 13  1  6
 14 15  1  0
 14 16  2  3
 18 17  1  6
 19 18  1  1
 20 21  1  0
 21 22  1  0
 21 23  2  0
 24 25  1  0
M  CHG  1  16   1
M  END
$$$$
