
     RDKit          3D

 25 27  0  0  0  0  0  0  0  0999 V2000
   21.6105   40.8436   73.2785 O   0  0  0  0  0  0  0  0  0  0  0  0
   22.7665   40.3985   73.3786 C   0  0  0  0  0  0  0  0  0  0  0  0
   23.2218   39.8968   74.7174 C   0  0  0  0  0  0  0  0  0  0  0  0
   23.6676   40.3426   72.2963 N   0  0  0  0  0  0  0  0  0  0  0  0
   23.3180   40.8128   71.0014 C   0  0  0  0  0  0  0  0  0  0  0  0
   24.3542   40.5371   69.9860 C   0  0  0  0  0  0  0  0  0  0  0  0
   25.5441   41.1874   69.8660 C   0  0  0  0  0  0  0  0  0  0  0  0
   26.4964   40.8898   68.8964 C   0  0  0  0  0  0  0  0  0  0  0  0
   26.2259   39.8792   68.0024 C   0  0  0  0  0  0  0  0  0  0  0  0
   27.1567   39.4981   66.9536 C   0  0  0  0  0  0  0  0  0  0  0  0
   28.3845   38.9386   67.2337 C   0  0  0  0  0  0  0  0  0  0  0  0
   29.2839   38.5721   66.2653 C   0  0  0  0  0  0  0  0  0  0  0  0
   30.6017   37.9686   66.5548 C   0  0  1  0  0  0  0  0  0  0  0  0
   31.7810   38.7332   66.1325 C   0  0  0  0  0  0  0  0  0  0  0  0
   32.4010   39.7043   67.0030 N   0  0  0  0  0  0  0  0  0  0  0  0
   32.3152   38.5661   64.9865 N   0  0  0  0  0  4  0  0  0  0  0  0
   30.7584   37.3046   67.8760 C   0  0  0  0  0  0  0  0  0  0  0  0
   31.6739   36.3038   67.1451 C   0  0  0  0  0  0  0  0  0  0  0  0
   30.7056   36.5234   65.9664 C   0  0  0  0  0  0  0  0  0  0  0  0
   28.9297   38.7785   64.9531 C   0  0  0  0  0  0  0  0  0  0  0  0
   27.6931   39.3437   64.6224 C   0  0  0  0  0  0  0  0  0  0  0  0
   27.2039   39.6231   62.9697 Cl  0  0  0  0  0  0  0  0  0  0  0  0
   26.8259   39.6945   65.6342 C   0  0  0  0  0  0  0  0  0  0  0  0
   25.0355   39.2119   68.1045 C   0  0  0  0  0  0  0  0  0  0  0  0
   24.1096   39.5145   69.0613 C   0  0  0  0  0  0  0  0  0  0  0  0
  1  2  2  0
  3  2  1  1
  2  4  1  0
  5  4  1  6
  5  6  1  0
  6 25  2  0
  6  7  1  0
  7  8  2  0
  8  9  1  0
  9 10  1  0
  9 24  2  0
 10 23  1  0
 10 11  2  0
 11 12  1  0
 13 12  1  1
 12 20  2  0
 13 19  1  0
 13 14  1  0
 17 13  1  6
 14 15  1  0
 14 16  2  3
 18 17  1  6
 19 18  1  1
 20 21  1  0
 21 22  1  0
 21 23  2  0
 24 25  1  0
M  CHG  1  16   1
M  END
$$$$
