
     RDKit          3D

 20 22  0  0  0  0  0  0  0  0999 V2000
   15.2903   47.3205   64.5912 N   0  0  0  0  0  4  0  0  0  0  0  0
   14.8944   46.6206   65.5956 C   0  0  0  0  0  0  0  0  0  0  0  0
   14.3926   47.3500   66.7085 N   0  0  0  0  0  0  0  0  0  0  0  0
   14.9876   45.1601   65.5498 C   0  0  2  0  0  0  0  0  0  0  0  0
   16.0586   44.5561   66.3858 C   0  0  0  0  0  0  0  0  0  0  0  0
   16.2787   43.5520   65.2664 C   0  0  0  0  0  0  0  0  0  0  0  0
   15.7981   44.6704   64.3287 C   0  0  0  0  0  0  0  0  0  0  0  0
   13.6957   44.4116   65.5287 C   0  0  0  0  0  0  0  0  0  0  0  0
   13.5935   43.1086   65.0926 C   0  0  0  0  0  0  0  0  0  0  0  0
   12.3527   42.4545   65.0757 C   0  0  0  0  0  0  0  0  0  0  0  0
   12.2720   40.7963   64.5123 Cl  0  0  0  0  0  0  0  0  0  0  0  0
   11.2369   43.1418   65.5047 C   0  0  0  0  0  0  0  0  0  0  0  0
   11.2974   44.4450   65.9481 C   0  0  0  0  0  0  0  0  0  0  0  0
   10.0985   45.1463   66.3957 C   0  0  0  0  0  0  0  0  0  0  0  0
    9.0424   44.4825   66.9915 C   0  0  0  0  0  0  0  0  0  0  0  0
    7.9154   45.1580   67.4090 C   0  0  0  0  0  0  0  0  0  0  0  0
    7.7858   46.5221   67.2542 C   0  0  0  0  0  0  0  0  0  0  0  0
    8.8349   47.1919   66.6607 C   0  0  0  0  0  0  0  0  0  0  0  0
    9.9622   46.5158   66.2432 C   0  0  0  0  0  0  0  0  0  0  0  0
   12.5602   45.0511   65.9443 C   0  0  0  0  0  0  0  0  0  0  0  0
  1  2  2  3
  2  3  1  0
  2  4  1  0
  7  4  1  6
  4  5  1  0
  4  8  1  1
  5  6  1  1
  6  7  1  1
  8 20  1  0
  8  9  2  0
  9 10  1  0
 10 11  1  0
 10 12  2  0
 12 13  1  0
 13 14  1  0
 13 20  2  0
 14 19  1  0
 14 15  2  0
 15 16  1  0
 16 17  2  0
 17 18  1  0
 18 19  2  0
M  CHG  1   1   1
M  END
$$$$
