
     RDKit          3D

 20 22  0  0  0  0  0  0  0  0999 V2000
   19.5279   41.4009   65.9689 N   0  0  0  0  0  4  0  0  0  0  0  0
   20.1357   41.8999   64.9504 C   0  0  0  0  0  0  0  0  0  0  0  0
   20.4138   43.2933   65.0077 N   0  0  0  0  0  0  0  0  0  0  0  0
   20.4880   41.0414   63.8178 C   0  0  2  0  0  0  0  0  0  0  0  0
   19.5262   41.0434   62.6839 C   0  0  0  0  0  0  0  0  0  0  0  0
   19.7932   39.5545   62.5373 C   0  0  0  0  0  0  0  0  0  0  0  0
   20.0624   39.5742   64.0500 C   0  0  0  0  0  0  0  0  0  0  0  0
   21.9300   41.0083   63.4317 C   0  0  0  0  0  0  0  0  0  0  0  0
   22.3694   41.2892   62.1563 C   0  0  0  0  0  0  0  0  0  0  0  0
   23.7343   41.2272   61.8393 C   0  0  0  0  0  0  0  0  0  0  0  0
   24.2459   41.5932   60.2029 Cl  0  0  0  0  0  0  0  0  0  0  0  0
   24.6282   40.8795   62.8300 C   0  0  0  0  0  0  0  0  0  0  0  0
   24.2291   40.5915   64.1170 C   0  0  0  0  0  0  0  0  0  0  0  0
   25.1991   40.2261   65.1441 C   0  0  0  0  0  0  0  0  0  0  0  0
   26.4719   40.7647   65.1727 C   0  0  0  0  0  0  0  0  0  0  0  0
   27.3785   40.4098   66.1490 C   0  0  0  0  0  0  0  0  0  0  0  0
   27.0628   39.5047   67.1404 C   0  0  0  0  0  0  0  0  0  0  0  0
   25.7950   38.9627   67.1190 C   0  0  0  0  0  0  0  0  0  0  0  0
   24.8884   39.3181   66.1423 C   0  0  0  0  0  0  0  0  0  0  0  0
   22.8553   40.6680   64.3799 C   0  0  0  0  0  0  0  0  0  0  0  0
  1  2  2  3
  2  3  1  0
  2  4  1  0
  7  4  1  6
  4  5  1  0
  4  8  1  6
  5  6  1  1
  6  7  1  1
  8 20  1  0
  8  9  2  0
  9 10  1  0
 10 11  1  0
 10 12  2  0
 12 13  1  0
 13 14  1  0
 13 20  2  0
 14 19  1  0
 14 15  2  0
 15 16  1  0
 16 17  2  0
 17 18  1  0
 18 19  2  0
M  CHG  1   1   1
M  END
$$$$
