
     RDKit          3D

 20 22  0  0  0  0  0  0  0  0999 V2000
   14.3333   39.6924   55.9844 N   0  0  0  0  0  4  0  0  0  0  0  0
   13.7680   39.9037   57.1207 C   0  0  0  0  0  0  0  0  0  0  0  0
   12.9901   38.8334   57.6420 N   0  0  0  0  0  0  0  0  0  0  0  0
   13.9376   41.1940   57.7918 C   0  0  2  0  0  0  0  0  0  0  0  0
   12.8288   42.1672   57.6071 C   0  0  0  0  0  0  0  0  0  0  0  0
   13.8836   43.2589   57.5339 C   0  0  0  0  0  0  0  0  0  0  0  0
   14.8024   42.1685   56.9611 C   0  0  0  0  0  0  0  0  0  0  0  0
   14.5346   41.1586   59.1600 C   0  0  0  0  0  0  0  0  0  0  0  0
   15.7992   40.6730   59.4118 C   0  0  0  0  0  0  0  0  0  0  0  0
   16.3085   40.6450   60.7184 C   0  0  0  0  0  0  0  0  0  0  0  0
   17.9231   40.0182   60.9898 Cl  0  0  0  0  0  0  0  0  0  0  0  0
   15.5179   41.1134   61.7465 C   0  0  0  0  0  0  0  0  0  0  0  0
   14.2486   41.6068   61.5362 C   0  0  0  0  0  0  0  0  0  0  0  0
   13.4355   42.0953   62.6451 C   0  0  0  0  0  0  0  0  0  0  0  0
   13.9226   42.1577   63.9373 C   0  0  0  0  0  0  0  0  0  0  0  0
   13.1427   42.6211   64.9756 C   0  0  0  0  0  0  0  0  0  0  0  0
   11.8448   43.0432   64.7782 C   0  0  0  0  0  0  0  0  0  0  0  0
   11.3512   42.9843   63.4919 C   0  0  0  0  0  0  0  0  0  0  0  0
   12.1317   42.5207   62.4536 C   0  0  0  0  0  0  0  0  0  0  0  0
   13.7886   41.6120   60.2132 C   0  0  0  0  0  0  0  0  0  0  0  0
  1  2  2  3
  2  3  1  0
  2  4  1  0
  7  4  1  6
  4  5  1  0
  4  8  1  1
  5  6  1  1
  6  7  1  1
  8 20  1  0
  8  9  2  0
  9 10  1  0
 10 11  1  0
 10 12  2  0
 12 13  1  0
 13 14  1  0
 13 20  2  0
 14 19  1  0
 14 15  2  0
 15 16  1  0
 16 17  2  0
 17 18  1  0
 18 19  2  0
M  CHG  1   1   1
M  END
$$$$
