
     RDKit          3D

 20 22  0  0  0  0  0  0  0  0999 V2000
   29.4840   36.2910   69.3337 N   0  0  0  0  0  4  0  0  0  0  0  0
   29.6082   37.3830   68.6647 C   0  0  0  0  0  0  0  0  0  0  0  0
   29.9863   38.5342   69.4090 N   0  0  0  0  0  0  0  0  0  0  0  0
   29.3517   37.3891   67.2231 C   0  0  2  0  0  0  0  0  0  0  0  0
   29.3761   36.0593   66.5584 C   0  0  0  0  0  0  0  0  0  0  0  0
   30.0492   36.7337   65.3745 C   0  0  0  0  0  0  0  0  0  0  0  0
   30.6260   37.7110   66.4105 C   0  0  0  0  0  0  0  0  0  0  0  0
   28.2933   38.3251   66.7398 C   0  0  0  0  0  0  0  0  0  0  0  0
   28.3645   38.9714   65.5251 C   0  0  0  0  0  0  0  0  0  0  0  0
   27.3520   39.8554   65.1240 C   0  0  0  0  0  0  0  0  0  0  0  0
   27.4860   40.6546   63.5694 Cl  0  0  0  0  0  0  0  0  0  0  0  0
   26.2833   40.0646   65.9699 C   0  0  0  0  0  0  0  0  0  0  0  0
   26.1752   39.4377   67.1922 C   0  0  0  0  0  0  0  0  0  0  0  0
   25.0319   39.6798   68.0661 C   0  0  0  0  0  0  0  0  0  0  0  0
   23.7494   39.8216   67.5701 C   0  0  0  0  0  0  0  0  0  0  0  0
   22.6784   40.0507   68.4076 C   0  0  0  0  0  0  0  0  0  0  0  0
   22.8320   40.1493   69.7745 C   0  0  0  0  0  0  0  0  0  0  0  0
   24.1083   40.0090   70.2775 C   0  0  0  0  0  0  0  0  0  0  0  0
   25.1793   39.7798   69.4393 C   0  0  0  0  0  0  0  0  0  0  0  0
   27.2133   38.5656   67.5441 C   0  0  0  0  0  0  0  0  0  0  0  0
  1  2  2  3
  2  3  1  0
  2  4  1  0
  7  4  1  6
  4  5  1  0
  4  8  1  1
  5  6  1  1
  6  7  1  1
  8 20  1  0
  8  9  2  0
  9 10  1  0
 10 11  1  0
 10 12  2  0
 12 13  1  0
 13 14  1  0
 13 20  2  0
 14 19  1  0
 14 15  2  0
 15 16  1  0
 16 17  2  0
 17 18  1  0
 18 19  2  0
M  CHG  1   1   1
M  END
$$$$
