
     RDKit          3D

 20 22  0  0  0  0  0  0  0  0999 V2000
   26.9031   42.7468   71.4989 N   0  0  0  0  0  4  0  0  0  0  0  0
   27.2303   41.5031   71.5399 C   0  0  0  0  0  0  0  0  0  0  0  0
   28.6150   41.2248   71.7055 N   0  0  0  0  0  0  0  0  0  0  0  0
   26.1991   40.4721   71.4069 C   0  0  2  0  0  0  0  0  0  0  0  0
   25.0956   40.5322   72.4015 C   0  0  0  0  0  0  0  0  0  0  0  0
   25.1197   39.0129   72.4262 C   0  0  0  0  0  0  0  0  0  0  0  0
   26.6128   39.1491   72.0898 C   0  0  0  0  0  0  0  0  0  0  0  0
   25.7863   40.1198   70.0158 C   0  0  0  0  0  0  0  0  0  0  0  0
   24.5144   40.3409   69.5345 C   0  0  0  0  0  0  0  0  0  0  0  0
   24.1710   39.9757   68.2245 C   0  0  0  0  0  0  0  0  0  0  0  0
   22.5401   40.2770   67.6563 Cl  0  0  0  0  0  0  0  0  0  0  0  0
   25.1323   39.3909   67.4274 C   0  0  0  0  0  0  0  0  0  0  0  0
   26.4149   39.1531   67.8712 C   0  0  0  0  0  0  0  0  0  0  0  0
   27.4106   38.5319   67.0039 C   0  0  0  0  0  0  0  0  0  0  0  0
   28.2131   37.4935   67.4384 C   0  0  0  0  0  0  0  0  0  0  0  0
   29.1503   36.9163   66.6081 C   0  0  0  0  0  0  0  0  0  0  0  0
   29.3333   37.3435   65.3098 C   0  0  0  0  0  0  0  0  0  0  0  0
   28.5367   38.3790   64.8685 C   0  0  0  0  0  0  0  0  0  0  0  0
   27.5993   38.9561   65.6994 C   0  0  0  0  0  0  0  0  0  0  0  0
   26.7050   39.5365   69.1868 C   0  0  0  0  0  0  0  0  0  0  0  0
  1  2  2  3
  2  3  1  0
  2  4  1  0
  7  4  1  6
  4  5  1  0
  4  8  1  6
  5  6  1  1
  6  7  1  1
  8 20  1  0
  8  9  2  0
  9 10  1  0
 10 11  1  0
 10 12  2  0
 12 13  1  0
 13 14  1  0
 13 20  2  0
 14 19  1  0
 14 15  2  0
 15 16  1  0
 16 17  2  0
 17 18  1  0
 18 19  2  0
M  CHG  1   1   1
M  END
$$$$
