
     RDKit          3D

 20 22  0  0  0  0  0  0  0  0999 V2000
   28.9394   39.0150   69.9438 N   0  0  0  0  0  4  0  0  0  0  0  0
   28.7827   39.9609   69.0858 C   0  0  0  0  0  0  0  0  0  0  0  0
   28.8974   41.2867   69.5871 N   0  0  0  0  0  0  0  0  0  0  0  0
   28.4925   39.6375   67.6875 C   0  0  2  0  0  0  0  0  0  0  0  0
   29.3343   38.5704   67.0847 C   0  0  0  0  0  0  0  0  0  0  0  0
   29.3285   39.3800   65.7986 C   0  0  0  0  0  0  0  0  0  0  0  0
   29.1946   40.6085   66.7118 C   0  0  0  0  0  0  0  0  0  0  0  0
   27.0518   39.6117   67.2960 C   0  0  0  0  0  0  0  0  0  0  0  0
   26.6267   39.2711   66.0305 C   0  0  0  0  0  0  0  0  0  0  0  0
   25.2618   39.2791   65.7072 C   0  0  0  0  0  0  0  0  0  0  0  0
   24.7687   38.8382   64.0836 Cl  0  0  0  0  0  0  0  0  0  0  0  0
   24.3534   39.6345   66.6819 C   0  0  0  0  0  0  0  0  0  0  0  0
   24.7380   39.9813   67.9587 C   0  0  0  0  0  0  0  0  0  0  0  0
   23.7529   40.3534   68.9689 C   0  0  0  0  0  0  0  0  0  0  0  0
   22.7999   39.4615   69.4244 C   0  0  0  0  0  0  0  0  0  0  0  0
   21.8746   39.8270   70.3791 C   0  0  0  0  0  0  0  0  0  0  0  0
   21.8535   41.0935   70.9242 C   0  0  0  0  0  0  0  0  0  0  0  0
   22.8009   41.9893   70.4752 C   0  0  0  0  0  0  0  0  0  0  0  0
   23.7263   41.6232   69.5203 C   0  0  0  0  0  0  0  0  0  0  0  0
   26.1124   39.9571   68.2285 C   0  0  0  0  0  0  0  0  0  0  0  0
  1  2  2  3
  2  3  1  0
  2  4  1  0
  7  4  1  6
  4  5  1  0
  4  8  1  1
  5  6  1  1
  6  7  1  1
  8 20  1  0
  8  9  2  0
  9 10  1  0
 10 11  1  0
 10 12  2  0
 12 13  1  0
 13 14  1  0
 13 20  2  0
 14 19  1  0
 14 15  2  0
 15 16  1  0
 16 17  2  0
 17 18  1  0
 18 19  2  0
M  CHG  1   1   1
M  END
$$$$
