
     RDKit          3D

 20 22  0  0  0  0  0  0  0  0999 V2000
   22.0708   40.3619   68.7470 N   0  0  0  0  0  4  0  0  0  0  0  0
   23.1044   40.8216   68.1339 C   0  0  0  0  0  0  0  0  0  0  0  0
   23.4028   42.1948   68.3520 N   0  0  0  0  0  0  0  0  0  0  0  0
   23.8880   39.9427   67.2636 C   0  0  2  0  0  0  0  0  0  0  0  0
   24.0766   38.5517   67.7538 C   0  0  0  0  0  0  0  0  0  0  0  0
   25.4886   38.6135   67.1952 C   0  0  0  0  0  0  0  0  0  0  0  0
   25.4078   40.1216   67.4785 C   0  0  0  0  0  0  0  0  0  0  0  0
   23.6491   40.0753   65.7956 C   0  0  0  0  0  0  0  0  0  0  0  0
   24.6653   40.0356   64.8660 C   0  0  0  0  0  0  0  0  0  0  0  0
   24.3907   40.1827   63.4983 C   0  0  0  0  0  0  0  0  0  0  0  0
   25.7165   40.1250   62.3527 Cl  0  0  0  0  0  0  0  0  0  0  0  0
   23.0829   40.3678   63.1025 C   0  0  0  0  0  0  0  0  0  0  0  0
   22.0389   40.4134   64.0007 C   0  0  0  0  0  0  0  0  0  0  0  0
   20.6647   40.6112   63.5512 C   0  0  0  0  0  0  0  0  0  0  0  0
   19.9216   39.5853   62.9976 C   0  0  0  0  0  0  0  0  0  0  0  0
   18.6242   39.7867   62.5766 C   0  0  0  0  0  0  0  0  0  0  0  0
   18.0062   41.0146   62.6860 C   0  0  0  0  0  0  0  0  0  0  0  0
   18.7408   42.0433   63.2372 C   0  0  0  0  0  0  0  0  0  0  0  0
   20.0385   41.8415   63.6582 C   0  0  0  0  0  0  0  0  0  0  0  0
   22.3680   40.2614   65.3537 C   0  0  0  0  0  0  0  0  0  0  0  0
  1  2  2  3
  2  3  1  0
  2  4  1  0
  7  4  1  6
  4  5  1  0
  4  8  1  6
  5  6  1  1
  6  7  1  1
  8 20  1  0
  8  9  2  0
  9 10  1  0
 10 11  1  0
 10 12  2  0
 12 13  1  0
 13 14  1  0
 13 20  2  0
 14 19  1  0
 14 15  2  0
 15 16  1  0
 16 17  2  0
 17 18  1  0
 18 19  2  0
M  CHG  1   1   1
M  END
$$$$
