
     RDKit          3D

 20 22  0  0  0  0  0  0  0  0999 V2000
   28.7629   41.9609   67.7460 N   0  0  0  0  0  4  0  0  0  0  0  0
   28.5820   40.8885   68.4335 C   0  0  0  0  0  0  0  0  0  0  0  0
   28.8320   40.9898   69.8297 N   0  0  0  0  0  0  0  0  0  0  0  0
   28.1542   39.6572   67.7665 C   0  0  2  0  0  0  0  0  0  0  0  0
   28.3521   38.4029   68.5401 C   0  0  0  0  0  0  0  0  0  0  0  0
   28.7324   37.7303   67.2315 C   0  0  0  0  0  0  0  0  0  0  0  0
   29.2332   39.1177   66.8009 C   0  0  0  0  0  0  0  0  0  0  0  0
   26.8844   39.7311   66.9843 C   0  0  0  0  0  0  0  0  0  0  0  0
   26.8468   39.6459   65.6097 C   0  0  0  0  0  0  0  0  0  0  0  0
   25.6292   39.7387   64.9195 C   0  0  0  0  0  0  0  0  0  0  0  0
   25.6311   39.6246   63.1701 Cl  0  0  0  0  0  0  0  0  0  0  0  0
   24.4699   39.9169   65.6447 C   0  0  0  0  0  0  0  0  0  0  0  0
   24.4653   40.0068   67.0196 C   0  0  0  0  0  0  0  0  0  0  0  0
   23.2218   40.1957   67.7595 C   0  0  0  0  0  0  0  0  0  0  0  0
   22.1712   40.9341   67.2475 C   0  0  0  0  0  0  0  0  0  0  0  0
   21.0020   41.1049   67.9581 C   0  0  0  0  0  0  0  0  0  0  0  0
   20.8230   40.5509   69.2082 C   0  0  0  0  0  0  0  0  0  0  0  0
   21.8664   39.8128   69.7261 C   0  0  0  0  0  0  0  0  0  0  0  0
   23.0357   39.6421   69.0150 C   0  0  0  0  0  0  0  0  0  0  0  0
   25.7077   39.9081   67.6591 C   0  0  0  0  0  0  0  0  0  0  0  0
  1  2  2  3
  2  3  1  0
  2  4  1  0
  7  4  1  6
  4  5  1  0
  4  8  1  6
  5  6  1  1
  6  7  1  1
  8 20  1  0
  8  9  2  0
  9 10  1  0
 10 11  1  0
 10 12  2  0
 12 13  1  0
 13 14  1  0
 13 20  2  0
 14 19  1  0
 14 15  2  0
 15 16  1  0
 16 17  2  0
 17 18  1  0
 18 19  2  0
M  CHG  1   1   1
M  END
$$$$
