
     RDKit          3D

 20 22  0  0  0  0  0  0  0  0999 V2000
   27.4127   51.2067   47.2635 N   0  0  0  0  0  4  0  0  0  0  0  0
   27.5244   49.9563   47.5456 C   0  0  0  0  0  0  0  0  0  0  0  0
   26.4143   49.1355   47.2045 N   0  0  0  0  0  0  0  0  0  0  0  0
   28.7408   49.4595   48.1918 C   0  0  2  0  0  0  0  0  0  0  0  0
   28.7641   49.5473   49.6758 C   0  0  0  0  0  0  0  0  0  0  0  0
   30.2353   49.9129   49.5681 C   0  0  0  0  0  0  0  0  0  0  0  0
   29.8624   50.5223   48.2077 C   0  0  0  0  0  0  0  0  0  0  0  0
   29.3406   48.2191   47.6161 C   0  0  0  0  0  0  0  0  0  0  0  0
   29.3937   47.0258   48.3029 C   0  0  0  0  0  0  0  0  0  0  0  0
   29.9839   45.8925   47.7245 C   0  0  0  0  0  0  0  0  0  0  0  0
   30.0281   44.3960   48.6367 Cl  0  0  0  0  0  0  0  0  0  0  0  0
   30.5100   45.9963   46.4541 C   0  0  0  0  0  0  0  0  0  0  0  0
   30.4766   47.1710   45.7347 C   0  0  0  0  0  0  0  0  0  0  0  0
   31.0423   47.2500   44.3918 C   0  0  0  0  0  0  0  0  0  0  0  0
   32.1871   46.5603   44.0388 C   0  0  0  0  0  0  0  0  0  0  0  0
   32.7109   46.6447   42.7662 C   0  0  0  0  0  0  0  0  0  0  0  0
   32.1223   47.4172   41.7871 C   0  0  0  0  0  0  0  0  0  0  0  0
   30.9798   48.1085   42.1311 C   0  0  0  0  0  0  0  0  0  0  0  0
   30.4562   48.0237   43.4043 C   0  0  0  0  0  0  0  0  0  0  0  0
   29.8763   48.2721   46.3586 C   0  0  0  0  0  0  0  0  0  0  0  0
  1  2  2  3
  2  3  1  0
  2  4  1  0
  7  4  1  6
  4  5  1  0
  4  8  1  1
  5  6  1  1
  6  7  1  1
  8 20  1  0
  8  9  2  0
  9 10  1  0
 10 11  1  0
 10 12  2  0
 12 13  1  0
 13 14  1  0
 13 20  2  0
 14 19  1  0
 14 15  2  0
 15 16  1  0
 16 17  2  0
 17 18  1  0
 18 19  2  0
M  CHG  1   1   1
M  END
$$$$
