
     RDKit          3D

 20 22  0  0  0  0  0  0  0  0999 V2000
   15.5074   42.1073   54.3753 N   0  0  0  0  0  4  0  0  0  0  0  0
   16.0644   40.9892   54.6835 C   0  0  0  0  0  0  0  0  0  0  0  0
   16.2076   40.0483   53.6268 N   0  0  0  0  0  0  0  0  0  0  0  0
   16.4974   40.7444   56.0607 C   0  0  2  0  0  0  0  0  0  0  0  0
   15.4150   40.7055   57.0793 C   0  0  0  0  0  0  0  0  0  0  0  0
   16.3653   41.4214   58.0248 C   0  0  0  0  0  0  0  0  0  0  0  0
   16.9730   42.0398   56.7561 C   0  0  0  0  0  0  0  0  0  0  0  0
   17.5858   39.7394   56.2470 C   0  0  0  0  0  0  0  0  0  0  0  0
   17.4486   38.6287   57.0507 C   0  0  0  0  0  0  0  0  0  0  0  0
   18.5079   37.7225   57.2068 C   0  0  0  0  0  0  0  0  0  0  0  0
   18.2863   36.3235   58.2398 Cl  0  0  0  0  0  0  0  0  0  0  0  0
   19.6898   37.9655   56.5394 C   0  0  0  0  0  0  0  0  0  0  0  0
   19.8667   39.0641   55.7268 C   0  0  0  0  0  0  0  0  0  0  0  0
   21.1300   39.2945   55.0336 C   0  0  0  0  0  0  0  0  0  0  0  0
   21.7136   40.5462   54.9736 C   0  0  0  0  0  0  0  0  0  0  0  0
   22.9074   40.7495   54.3145 C   0  0  0  0  0  0  0  0  0  0  0  0
   23.5755   39.7201   53.6855 C   0  0  0  0  0  0  0  0  0  0  0  0
   23.0000   38.4682   53.7406 C   0  0  0  0  0  0  0  0  0  0  0  0
   21.8058   38.2653   54.4001 C   0  0  0  0  0  0  0  0  0  0  0  0
   18.7779   39.9370   55.6059 C   0  0  0  0  0  0  0  0  0  0  0  0
  1  2  2  3
  2  3  1  0
  2  4  1  0
  7  4  1  6
  4  5  1  0
  4  8  1  6
  5  6  1  1
  6  7  1  1
  8 20  1  0
  8  9  2  0
  9 10  1  0
 10 11  1  0
 10 12  2  0
 12 13  1  0
 13 14  1  0
 13 20  2  0
 14 19  1  0
 14 15  2  0
 15 16  1  0
 16 17  2  0
 17 18  1  0
 18 19  2  0
M  CHG  1   1   1
M  END
$$$$
