
     RDKit          3D

 20 22  0  0  0  0  0  0  0  0999 V2000
   23.1935   42.6974   62.7739 N   0  0  0  0  0  4  0  0  0  0  0  0
   22.9005   41.9639   61.7583 C   0  0  0  0  0  0  0  0  0  0  0  0
   23.2050   42.5112   60.4815 N   0  0  0  0  0  0  0  0  0  0  0  0
   22.2792   40.6533   61.9592 C   0  0  2  0  0  0  0  0  0  0  0  0
   22.7763   39.8764   63.1254 C   0  0  0  0  0  0  0  0  0  0  0  0
   22.6541   38.6288   62.2662 C   0  0  0  0  0  0  0  0  0  0  0  0
   22.9305   39.5635   61.0783 C   0  0  0  0  0  0  0  0  0  0  0  0
   20.8081   40.5705   61.7172 C   0  0  0  0  0  0  0  0  0  0  0  0
   19.8848   40.5055   62.7379 C   0  0  0  0  0  0  0  0  0  0  0  0
   18.5135   40.4111   62.4580 C   0  0  0  0  0  0  0  0  0  0  0  0
   17.3762   40.3310   63.7898 Cl  0  0  0  0  0  0  0  0  0  0  0  0
   18.1077   40.3847   61.1404 C   0  0  0  0  0  0  0  0  0  0  0  0
   18.9993   40.4477   60.0917 C   0  0  0  0  0  0  0  0  0  0  0  0
   18.5393   40.4173   58.7072 C   0  0  0  0  0  0  0  0  0  0  0  0
   17.6394   41.3442   58.2150 C   0  0  0  0  0  0  0  0  0  0  0  0
   17.2129   41.3031   56.9045 C   0  0  0  0  0  0  0  0  0  0  0  0
   17.6601   40.3407   56.0239 C   0  0  0  0  0  0  0  0  0  0  0  0
   18.5580   39.4123   56.5069 C   0  0  0  0  0  0  0  0  0  0  0  0
   18.9844   39.4538   57.8179 C   0  0  0  0  0  0  0  0  0  0  0  0
   20.3563   40.5409   60.4264 C   0  0  0  0  0  0  0  0  0  0  0  0
  1  2  2  3
  2  3  1  0
  2  4  1  0
  7  4  1  6
  4  5  1  0
  4  8  1  1
  5  6  1  1
  6  7  1  1
  8 20  1  0
  8  9  2  0
  9 10  1  0
 10 11  1  0
 10 12  2  0
 12 13  1  0
 13 14  1  0
 13 20  2  0
 14 19  1  0
 14 15  2  0
 15 16  1  0
 16 17  2  0
 17 18  1  0
 18 19  2  0
M  CHG  1   1   1
M  END
$$$$
