
     RDKit          3D

 20 22  0  0  0  0  0  0  0  0999 V2000
   17.2294   40.4154   74.4974 N   0  0  0  0  0  4  0  0  0  0  0  0
   18.4654   40.1737   74.7607 C   0  0  0  0  0  0  0  0  0  0  0  0
   18.7222   39.0317   75.5682 N   0  0  0  0  0  0  0  0  0  0  0  0
   19.5090   41.0615   74.2442 C   0  0  2  0  0  0  0  0  0  0  0  0
   20.6188   41.3674   75.1852 C   0  0  0  0  0  0  0  0  0  0  0  0
   20.6147   42.7824   74.6307 C   0  0  0  0  0  0  0  0  0  0  0  0
   19.1175   42.5508   74.3739 C   0  0  0  0  0  0  0  0  0  0  0  0
   19.9163   40.8527   72.8229 C   0  0  0  0  0  0  0  0  0  0  0  0
   21.1749   40.4249   72.4608 C   0  0  0  0  0  0  0  0  0  0  0  0
   21.5143   40.2608   71.1097 C   0  0  0  0  0  0  0  0  0  0  0  0
   23.1282   39.7142   70.6974 Cl  0  0  0  0  0  0  0  0  0  0  0  0
   20.5625   40.5361   70.1506 C   0  0  0  0  0  0  0  0  0  0  0  0
   19.2933   40.9657   70.4717 C   0  0  0  0  0  0  0  0  0  0  0  0
   18.3074   41.2495   69.4339 C   0  0  0  0  0  0  0  0  0  0  0  0
   16.9792   41.4893   69.7328 C   0  0  0  0  0  0  0  0  0  0  0  0
   16.0584   41.7556   68.7418 C   0  0  0  0  0  0  0  0  0  0  0  0
   16.4141   41.7958   67.4100 C   0  0  0  0  0  0  0  0  0  0  0  0
   17.7373   41.5576   67.1033 C   0  0  0  0  0  0  0  0  0  0  0  0
   18.6581   41.2913   68.0950 C   0  0  0  0  0  0  0  0  0  0  0  0
   19.0068   41.1132   71.8349 C   0  0  0  0  0  0  0  0  0  0  0  0
  1  2  2  3
  2  3  1  0
  2  4  1  0
  7  4  1  6
  4  5  1  0
  4  8  1  6
  5  6  1  1
  6  7  1  1
  8 20  1  0
  8  9  2  0
  9 10  1  0
 10 11  1  0
 10 12  2  0
 12 13  1  0
 13 14  1  0
 13 20  2  0
 14 19  1  0
 14 15  2  0
 15 16  1  0
 16 17  2  0
 17 18  1  0
 18 19  2  0
M  CHG  1   1   1
M  END
$$$$
