
     RDKit          3D

 20 22  0  0  0  0  0  0  0  0999 V2000
   16.7152   46.4797   65.3598 N   0  0  0  0  0  4  0  0  0  0  0  0
   15.5918   46.0444   64.9083 C   0  0  0  0  0  0  0  0  0  0  0  0
   14.7502   47.0084   64.2880 N   0  0  0  0  0  0  0  0  0  0  0  0
   15.2423   44.6307   65.0603 C   0  0  2  0  0  0  0  0  0  0  0  0
   16.3833   43.7060   65.2920 C   0  0  0  0  0  0  0  0  0  0  0  0
   15.6660   42.7001   64.4071 C   0  0  0  0  0  0  0  0  0  0  0  0
   15.0744   43.9265   63.6951 C   0  0  0  0  0  0  0  0  0  0  0  0
   14.0083   44.3314   65.8460 C   0  0  0  0  0  0  0  0  0  0  0  0
   14.0419   43.8371   67.1317 C   0  0  0  0  0  0  0  0  0  0  0  0
   12.8536   43.5553   67.8217 C   0  0  0  0  0  0  0  0  0  0  0  0
   12.9464   42.9278   69.4561 Cl  0  0  0  0  0  0  0  0  0  0  0  0
   11.6506   43.7832   67.1875 C   0  0  0  0  0  0  0  0  0  0  0  0
   11.5746   44.2765   65.9032 C   0  0  0  0  0  0  0  0  0  0  0  0
   10.2861   44.5069   65.2581 C   0  0  0  0  0  0  0  0  0  0  0  0
   10.1116   44.3495   63.8958 C   0  0  0  0  0  0  0  0  0  0  0  0
    8.8884   44.5713   63.2996 C   0  0  0  0  0  0  0  0  0  0  0  0
    7.7837   44.9591   64.0283 C   0  0  0  0  0  0  0  0  0  0  0  0
    7.9493   45.1184   65.3880 C   0  0  0  0  0  0  0  0  0  0  0  0
    9.1731   44.8964   65.9840 C   0  0  0  0  0  0  0  0  0  0  0  0
   12.7903   44.5405   65.2594 C   0  0  0  0  0  0  0  0  0  0  0  0
  1  2  2  3
  2  3  1  0
  2  4  1  0
  7  4  1  6
  4  5  1  0
  4  8  1  1
  5  6  1  1
  6  7  1  1
  8 20  1  0
  8  9  2  0
  9 10  1  0
 10 11  1  0
 10 12  2  0
 12 13  1  0
 13 14  1  0
 13 20  2  0
 14 19  1  0
 14 15  2  0
 15 16  1  0
 16 17  2  0
 17 18  1  0
 18 19  2  0
M  CHG  1   1   1
M  END
$$$$
