
     RDKit          3D

 20 22  0  0  0  0  0  0  0  0999 V2000
   18.7748   24.3052   66.7011 N   0  0  0  0  0  4  0  0  0  0  0  0
   19.8968   24.8591   66.4013 C   0  0  0  0  0  0  0  0  0  0  0  0
   20.2681   24.8195   65.0292 N   0  0  0  0  0  0  0  0  0  0  0  0
   20.7128   25.4708   67.4520 C   0  0  2  0  0  0  0  0  0  0  0  0
   21.9815   24.7661   67.7752 C   0  0  0  0  0  0  0  0  0  0  0  0
   21.7292   25.1132   69.2331 C   0  0  0  0  0  0  0  0  0  0  0  0
   20.2384   25.0615   68.8645 C   0  0  0  0  0  0  0  0  0  0  0  0
   20.7939   26.9618   67.4478 C   0  0  0  0  0  0  0  0  0  0  0  0
   19.6967   27.7710   67.6472 C   0  0  0  0  0  0  0  0  0  0  0  0
   19.8220   29.1677   67.6164 C   0  0  0  0  0  0  0  0  0  0  0  0
   18.3977   30.1564   67.8757 Cl  0  0  0  0  0  0  0  0  0  0  0  0
   21.0659   29.7151   67.3826 C   0  0  0  0  0  0  0  0  0  0  0  0
   22.1871   28.9406   67.1786 C   0  0  0  0  0  0  0  0  0  0  0  0
   23.4904   29.5493   66.9330 C   0  0  0  0  0  0  0  0  0  0  0  0
   24.3524   29.0666   65.9660 C   0  0  0  0  0  0  0  0  0  0  0  0
   25.5814   29.6514   65.7452 C   0  0  0  0  0  0  0  0  0  0  0  0
   26.0099   30.7410   66.4738 C   0  0  0  0  0  0  0  0  0  0  0  0
   25.1559   31.2286   67.4404 C   0  0  0  0  0  0  0  0  0  0  0  0
   23.9266   30.6434   67.6610 C   0  0  0  0  0  0  0  0  0  0  0  0
   22.0066   27.5521   67.2194 C   0  0  0  0  0  0  0  0  0  0  0  0
  1  2  2  3
  2  3  1  0
  2  4  1  0
  7  4  1  6
  4  5  1  0
  4  8  1  1
  5  6  1  1
  6  7  1  1
  8 20  1  0
  8  9  2  0
  9 10  1  0
 10 11  1  0
 10 12  2  0
 12 13  1  0
 13 14  1  0
 13 20  2  0
 14 19  1  0
 14 15  2  0
 15 16  1  0
 16 17  2  0
 17 18  1  0
 18 19  2  0
M  CHG  1   1   1
M  END
$$$$
