
     RDKit          3D

 20 22  0  0  0  0  0  0  0  0999 V2000
   24.4941   42.0164   69.2068 N   0  0  0  0  0  4  0  0  0  0  0  0
   23.8076   40.9408   69.3720 C   0  0  0  0  0  0  0  0  0  0  0  0
   22.9998   40.8866   70.5412 N   0  0  0  0  0  0  0  0  0  0  0  0
   23.8976   39.8590   68.3893 C   0  0  2  0  0  0  0  0  0  0  0  0
   23.9259   38.4814   68.9481 C   0  0  0  0  0  0  0  0  0  0  0  0
   24.9290   38.1294   67.8621 C   0  0  0  0  0  0  0  0  0  0  0  0
   25.3546   39.6037   67.9423 C   0  0  0  0  0  0  0  0  0  0  0  0
   23.0945   40.0254   67.1416 C   0  0  0  0  0  0  0  0  0  0  0  0
   23.6472   39.9542   65.8815 C   0  0  0  0  0  0  0  0  0  0  0  0
   22.8526   40.1351   64.7398 C   0  0  0  0  0  0  0  0  0  0  0  0
   23.6004   40.0353   63.1573 Cl  0  0  0  0  0  0  0  0  0  0  0  0
   21.5066   40.3857   64.9038 C   0  0  0  0  0  0  0  0  0  0  0  0
   20.9161   40.4645   66.1463 C   0  0  0  0  0  0  0  0  0  0  0  0
   19.4884   40.7315   66.2879 C   0  0  0  0  0  0  0  0  0  0  0  0
   18.5749   40.3572   65.3202 C   0  0  0  0  0  0  0  0  0  0  0  0
   17.2287   40.6164   65.4669 C   0  0  0  0  0  0  0  0  0  0  0  0
   16.7288   41.2587   66.5801 C   0  0  0  0  0  0  0  0  0  0  0  0
   17.6335   41.6355   67.5502 C   0  0  0  0  0  0  0  0  0  0  0  0
   18.9801   41.3759   67.4030 C   0  0  0  0  0  0  0  0  0  0  0  0
   21.7544   40.2765   67.2526 C   0  0  0  0  0  0  0  0  0  0  0  0
  1  2  2  3
  2  3  1  0
  2  4  1  0
  7  4  1  6
  4  5  1  0
  4  8  1  6
  5  6  1  1
  6  7  1  1
  8 20  1  0
  8  9  2  0
  9 10  1  0
 10 11  1  0
 10 12  2  0
 12 13  1  0
 13 14  1  0
 13 20  2  0
 14 19  1  0
 14 15  2  0
 15 16  1  0
 16 17  2  0
 17 18  1  0
 18 19  2  0
M  CHG  1   1   1
M  END
$$$$
