
     RDKit          3D

 20 22  0  0  0  0  0  0  0  0999 V2000
   16.8588   41.0654   69.1579 N   0  0  0  0  0  4  0  0  0  0  0  0
   17.0276   42.0652   68.3657 C   0  0  0  0  0  0  0  0  0  0  0  0
   17.3952   43.2947   68.9783 N   0  0  0  0  0  0  0  0  0  0  0  0
   16.8284   41.8968   66.9249 C   0  0  2  0  0  0  0  0  0  0  0  0
   16.5520   40.5083   66.4704 C   0  0  0  0  0  0  0  0  0  0  0  0
   17.4075   40.8049   65.2498 C   0  0  0  0  0  0  0  0  0  0  0  0
   18.1690   41.7752   66.1662 C   0  0  0  0  0  0  0  0  0  0  0  0
   16.0449   42.9629   66.2327 C   0  0  0  0  0  0  0  0  0  0  0  0
   16.6264   43.9053   65.4129 C   0  0  0  0  0  0  0  0  0  0  0  0
   15.8486   44.8980   64.7989 C   0  0  0  0  0  0  0  0  0  0  0  0
   16.6331   46.0757   63.7640 Cl  0  0  0  0  0  0  0  0  0  0  0  0
   14.4896   44.9119   65.0322 C   0  0  0  0  0  0  0  0  0  0  0  0
   13.8703   43.9875   65.8450 C   0  0  0  0  0  0  0  0  0  0  0  0
   12.4296   44.0282   66.0730 C   0  0  0  0  0  0  0  0  0  0  0  0
   11.5389   44.3544   65.0673 C   0  0  0  0  0  0  0  0  0  0  0  0
   10.1799   44.3895   65.2972 C   0  0  0  0  0  0  0  0  0  0  0  0
    9.6439   44.1027   66.5350 C   0  0  0  0  0  0  0  0  0  0  0  0
   10.5257   43.7763   67.5438 C   0  0  0  0  0  0  0  0  0  0  0  0
   11.8850   43.7413   67.3133 C   0  0  0  0  0  0  0  0  0  0  0  0
   14.6929   43.0183   66.4333 C   0  0  0  0  0  0  0  0  0  0  0  0
  1  2  2  3
  2  3  1  0
  2  4  1  0
  7  4  1  6
  4  5  1  0
  4  8  1  6
  5  6  1  1
  6  7  1  1
  8 20  1  0
  8  9  2  0
  9 10  1  0
 10 11  1  0
 10 12  2  0
 12 13  1  0
 13 14  1  0
 13 20  2  0
 14 19  1  0
 14 15  2  0
 15 16  1  0
 16 17  2  0
 17 18  1  0
 18 19  2  0
M  CHG  1   1   1
M  END
$$$$
