
     RDKit          3D

 20 22  0  0  0  0  0  0  0  0999 V2000
   29.4655   42.4145   68.1173 N   0  0  0  0  0  4  0  0  0  0  0  0
   29.0471   41.5940   69.0157 C   0  0  0  0  0  0  0  0  0  0  0  0
   28.9125   42.1195   70.3303 N   0  0  0  0  0  0  0  0  0  0  0  0
   28.7518   40.2057   68.6559 C   0  0  2  0  0  0  0  0  0  0  0  0
   28.7227   39.2393   69.7855 C   0  0  0  0  0  0  0  0  0  0  0  0
   29.3811   38.2317   68.8576 C   0  0  0  0  0  0  0  0  0  0  0  0
   30.0117   39.4534   68.1714 C   0  0  0  0  0  0  0  0  0  0  0  0
   27.7060   39.9976   67.6106 C   0  0  0  0  0  0  0  0  0  0  0  0
   26.4107   39.6359   67.9103 C   0  0  0  0  0  0  0  0  0  0  0  0
   25.4691   39.4352   66.8902 C   0  0  0  0  0  0  0  0  0  0  0  0
   23.8328   38.9756   67.3202 Cl  0  0  0  0  0  0  0  0  0  0  0  0
   25.8657   39.6074   65.5808 C   0  0  0  0  0  0  0  0  0  0  0  0
   27.1509   39.9687   65.2399 C   0  0  0  0  0  0  0  0  0  0  0  0
   27.5409   40.1432   63.8446 C   0  0  0  0  0  0  0  0  0  0  0  0
   26.6166   40.4287   62.8571 C   0  0  0  0  0  0  0  0  0  0  0  0
   26.9993   40.5904   61.5424 C   0  0  0  0  0  0  0  0  0  0  0  0
   28.3160   40.4760   61.1488 C   0  0  0  0  0  0  0  0  0  0  0  0
   29.2444   40.1913   62.1279 C   0  0  0  0  0  0  0  0  0  0  0  0
   28.8612   40.0297   63.4428 C   0  0  0  0  0  0  0  0  0  0  0  0
   28.0512   40.1563   66.2965 C   0  0  0  0  0  0  0  0  0  0  0  0
  1  2  2  3
  2  3  1  0
  2  4  1  0
  7  4  1  6
  4  5  1  0
  4  8  1  6
  5  6  1  1
  6  7  1  1
  8 20  1  0
  8  9  2  0
  9 10  1  0
 10 11  1  0
 10 12  2  0
 12 13  1  0
 13 14  1  0
 13 20  2  0
 14 19  1  0
 14 15  2  0
 15 16  1  0
 16 17  2  0
 17 18  1  0
 18 19  2  0
M  CHG  1   1   1
M  END
$$$$
