
     RDKit          3D

 20 22  0  0  0  0  0  0  0  0999 V2000
   29.6188   42.0017   69.4684 N   0  0  0  0  0  4  0  0  0  0  0  0
   29.8105   41.1319   68.5399 C   0  0  0  0  0  0  0  0  0  0  0  0
   30.7109   41.5080   67.5054 N   0  0  0  0  0  0  0  0  0  0  0  0
   29.1083   39.8478   68.5861 C   0  0  2  0  0  0  0  0  0  0  0  0
   28.8063   39.3269   69.9456 C   0  0  0  0  0  0  0  0  0  0  0  0
   29.1203   37.9381   69.4144 C   0  0  0  0  0  0  0  0  0  0  0  0
   30.0785   38.6530   68.4491 C   0  0  0  0  0  0  0  0  0  0  0  0
   28.0342   39.6402   67.5698 C   0  0  0  0  0  0  0  0  0  0  0  0
   28.2974   39.2754   66.2675 C   0  0  0  0  0  0  0  0  0  0  0  0
   27.2534   39.1097   65.3454 C   0  0  0  0  0  0  0  0  0  0  0  0
   27.6372   38.6446   63.6992 Cl  0  0  0  0  0  0  0  0  0  0  0  0
   25.9579   39.3193   65.7685 C   0  0  0  0  0  0  0  0  0  0  0  0
   25.6533   39.6847   67.0617 C   0  0  0  0  0  0  0  0  0  0  0  0
   24.2718   39.8997   67.4797 C   0  0  0  0  0  0  0  0  0  0  0  0
   23.2020   39.4467   66.7305 C   0  0  0  0  0  0  0  0  0  0  0  0
   21.9017   39.6575   67.1374 C   0  0  0  0  0  0  0  0  0  0  0  0
   21.6046   40.3272   68.3057 C   0  0  0  0  0  0  0  0  0  0  0  0
   22.6661   40.7825   69.0590 C   0  0  0  0  0  0  0  0  0  0  0  0
   23.9668   40.5713   68.6516 C   0  0  0  0  0  0  0  0  0  0  0  0
   26.7325   39.8368   67.9416 C   0  0  0  0  0  0  0  0  0  0  0  0
  1  2  2  3
  2  3  1  0
  2  4  1  0
  7  4  1  6
  4  5  1  0
  4  8  1  6
  5  6  1  1
  6  7  1  1
  8 20  1  0
  8  9  2  0
  9 10  1  0
 10 11  1  0
 10 12  2  0
 12 13  1  0
 13 14  1  0
 13 20  2  0
 14 19  1  0
 14 15  2  0
 15 16  1  0
 16 17  2  0
 17 18  1  0
 18 19  2  0
M  CHG  1   1   1
M  END
$$$$
