
     RDKit          3D

 20 22  0  0  0  0  0  0  0  0999 V2000
   22.3500   38.6058   68.9999 N   0  0  0  0  0  4  0  0  0  0  0  0
   22.8219   39.7001   68.5149 C   0  0  0  0  0  0  0  0  0  0  0  0
   24.2046   39.9416   68.7434 N   0  0  0  0  0  0  0  0  0  0  0  0
   21.9410   40.6161   67.7876 C   0  0  2  0  0  0  0  0  0  0  0  0
   21.9270   42.0204   68.2758 C   0  0  0  0  0  0  0  0  0  0  0  0
   20.4343   42.0380   67.9907 C   0  0  0  0  0  0  0  0  0  0  0  0
   20.4804   40.5305   68.2848 C   0  0  0  0  0  0  0  0  0  0  0  0
   21.8936   40.4555   66.3038 C   0  0  0  0  0  0  0  0  0  0  0  0
   23.0089   40.1716   65.5463 C   0  0  0  0  0  0  0  0  0  0  0  0
   22.9151   40.0477   64.1523 C   0  0  0  0  0  0  0  0  0  0  0  0
   24.3617   39.6856   63.2303 Cl  0  0  0  0  0  0  0  0  0  0  0  0
   21.6837   40.2155   63.5548 C   0  0  0  0  0  0  0  0  0  0  0  0
   20.5452   40.5000   64.2768 C   0  0  0  0  0  0  0  0  0  0  0  0
   19.2557   40.6725   63.6157 C   0  0  0  0  0  0  0  0  0  0  0  0
   18.3547   41.6432   64.0121 C   0  0  0  0  0  0  0  0  0  0  0  0
   17.1395   41.7945   63.3787 C   0  0  0  0  0  0  0  0  0  0  0  0
   16.7638   40.9896   62.3238 C   0  0  0  0  0  0  0  0  0  0  0  0
   17.6570   40.0188   61.9222 C   0  0  0  0  0  0  0  0  0  0  0  0
   18.8725   39.8678   62.5561 C   0  0  0  0  0  0  0  0  0  0  0  0
   20.6943   40.6133   65.6650 C   0  0  0  0  0  0  0  0  0  0  0  0
  1  2  2  3
  2  3  1  0
  2  4  1  0
  7  4  1  6
  4  5  1  0
  4  8  1  6
  5  6  1  1
  6  7  1  1
  8 20  1  0
  8  9  2  0
  9 10  1  0
 10 11  1  0
 10 12  2  0
 12 13  1  0
 13 14  1  0
 13 20  2  0
 14 19  1  0
 14 15  2  0
 15 16  1  0
 16 17  2  0
 17 18  1  0
 18 19  2  0
M  CHG  1   1   1
M  END
$$$$
