
     RDKit          3D

 20 22  0  0  0  0  0  0  0  0999 V2000
   21.5476   41.9105   70.1301 N   0  0  0  0  0  4  0  0  0  0  0  0
   22.2980   41.2869   69.2913 C   0  0  0  0  0  0  0  0  0  0  0  0
   22.0925   41.5940   67.9181 N   0  0  0  0  0  0  0  0  0  0  0  0
   23.2835   40.3174   69.7739 C   0  0  2  0  0  0  0  0  0  0  0  0
   22.7306   39.0318   70.2759 C   0  0  0  0  0  0  0  0  0  0  0  0
   23.7975   39.0680   71.3576 C   0  0  0  0  0  0  0  0  0  0  0  0
   23.7019   40.5967   71.2350 C   0  0  0  0  0  0  0  0  0  0  0  0
   24.5467   40.2046   68.9856 C   0  0  0  0  0  0  0  0  0  0  0  0
   24.9606   39.0278   68.4008 C   0  0  0  0  0  0  0  0  0  0  0  0
   26.1652   38.9691   67.6845 C   0  0  0  0  0  0  0  0  0  0  0  0
   26.6507   37.4494   66.9578 Cl  0  0  0  0  0  0  0  0  0  0  0  0
   26.9272   40.1134   67.5771 C   0  0  0  0  0  0  0  0  0  0  0  0
   26.5481   41.3093   68.1471 C   0  0  0  0  0  0  0  0  0  0  0  0
   27.3761   42.5037   68.0164 C   0  0  0  0  0  0  0  0  0  0  0  0
   27.3526   43.5165   68.9570 C   0  0  0  0  0  0  0  0  0  0  0  0
   28.1401   44.6399   68.8204 C   0  0  0  0  0  0  0  0  0  0  0  0
   28.9860   44.8088   67.7445 C   0  0  0  0  0  0  0  0  0  0  0  0
   29.0155   43.8030   66.8015 C   0  0  0  0  0  0  0  0  0  0  0  0
   28.2276   42.6794   66.9386 C   0  0  0  0  0  0  0  0  0  0  0  0
   25.3372   41.3129   68.8512 C   0  0  0  0  0  0  0  0  0  0  0  0
  1  2  2  3
  2  3  1  0
  2  4  1  0
  7  4  1  6
  4  5  1  0
  4  8  1  6
  5  6  1  1
  6  7  1  1
  8 20  1  0
  8  9  2  0
  9 10  1  0
 10 11  1  0
 10 12  2  0
 12 13  1  0
 13 14  1  0
 13 20  2  0
 14 19  1  0
 14 15  2  0
 15 16  1  0
 16 17  2  0
 17 18  1  0
 18 19  2  0
M  CHG  1   1   1
M  END
$$$$
