
     RDKit          3D

 20 22  0  0  0  0  0  0  0  0999 V2000
   16.4012   43.1402   56.6911 N   0  0  0  0  0  4  0  0  0  0  0  0
   16.7485   41.9013   56.6936 C   0  0  0  0  0  0  0  0  0  0  0  0
   17.7420   41.5272   55.7473 N   0  0  0  0  0  0  0  0  0  0  0  0
   16.1178   40.9682   57.6293 C   0  0  2  0  0  0  0  0  0  0  0  0
   16.2305   39.5279   57.2776 C   0  0  0  0  0  0  0  0  0  0  0  0
   14.8114   39.3558   57.7934 C   0  0  0  0  0  0  0  0  0  0  0  0
   14.6036   40.8157   57.3614 C   0  0  0  0  0  0  0  0  0  0  0  0
   16.2615   41.2838   59.0817 C   0  0  0  0  0  0  0  0  0  0  0  0
   15.1933   41.6258   59.8819 C   0  0  0  0  0  0  0  0  0  0  0  0
   15.3831   41.9309   61.2377 C   0  0  0  0  0  0  0  0  0  0  0  0
   13.9935   42.3606   62.2165 Cl  0  0  0  0  0  0  0  0  0  0  0  0
   16.6607   41.8815   61.7542 C   0  0  0  0  0  0  0  0  0  0  0  0
   17.7546   41.5440   60.9874 C   0  0  0  0  0  0  0  0  0  0  0  0
   19.0951   41.5006   61.5626 C   0  0  0  0  0  0  0  0  0  0  0  0
   19.5923   42.5322   62.3369 C   0  0  0  0  0  0  0  0  0  0  0  0
   20.8612   42.4781   62.8736 C   0  0  0  0  0  0  0  0  0  0  0  0
   21.6933   41.3982   62.6661 C   0  0  0  0  0  0  0  0  0  0  0  0
   21.2048   40.3647   61.8947 C   0  0  0  0  0  0  0  0  0  0  0  0
   19.9355   40.4193   61.3581 C   0  0  0  0  0  0  0  0  0  0  0  0
   17.5097   41.2488   59.6402 C   0  0  0  0  0  0  0  0  0  0  0  0
  1  2  2  3
  2  3  1  0
  2  4  1  0
  7  4  1  6
  4  5  1  0
  4  8  1  1
  5  6  1  1
  6  7  1  1
  8 20  1  0
  8  9  2  0
  9 10  1  0
 10 11  1  0
 10 12  2  0
 12 13  1  0
 13 14  1  0
 13 20  2  0
 14 19  1  0
 14 15  2  0
 15 16  1  0
 16 17  2  0
 17 18  1  0
 18 19  2  0
M  CHG  1   1   1
M  END
$$$$
