
     RDKit          3D

 20 22  0  0  0  0  0  0  0  0999 V2000
   19.3033   39.8648   70.9579 N   0  0  0  0  0  4  0  0  0  0  0  0
   18.5947   40.0113   69.8940 C   0  0  0  0  0  0  0  0  0  0  0  0
   17.3992   39.2440   69.8271 N   0  0  0  0  0  0  0  0  0  0  0  0
   19.0437   40.9195   68.8369 C   0  0  2  0  0  0  0  0  0  0  0  0
   20.3874   40.6327   68.2686 C   0  0  0  0  0  0  0  0  0  0  0  0
   20.6085   42.1346   68.1977 C   0  0  0  0  0  0  0  0  0  0  0  0
   19.6688   42.2109   69.4111 C   0  0  0  0  0  0  0  0  0  0  0  0
   18.0114   41.3517   67.8484 C   0  0  0  0  0  0  0  0  0  0  0  0
   16.9153   42.1110   68.1954 C   0  0  0  0  0  0  0  0  0  0  0  0
   15.9636   42.4767   67.2320 C   0  0  0  0  0  0  0  0  0  0  0  0
   14.5854   43.4437   67.7209 Cl  0  0  0  0  0  0  0  0  0  0  0  0
   16.1472   42.0613   65.9300 C   0  0  0  0  0  0  0  0  0  0  0  0
   17.2295   41.3014   65.5429 C   0  0  0  0  0  0  0  0  0  0  0  0
   17.3963   40.8764   64.1569 C   0  0  0  0  0  0  0  0  0  0  0  0
   18.0322   39.6945   63.8259 C   0  0  0  0  0  0  0  0  0  0  0  0
   18.1832   39.3056   62.5117 C   0  0  0  0  0  0  0  0  0  0  0  0
   17.7101   40.0720   61.4675 C   0  0  0  0  0  0  0  0  0  0  0  0
   17.0744   41.2526   61.7892 C   0  0  0  0  0  0  0  0  0  0  0  0
   16.9235   41.6412   63.1039 C   0  0  0  0  0  0  0  0  0  0  0  0
   18.1494   40.9637   66.5439 C   0  0  0  0  0  0  0  0  0  0  0  0
  1  2  2  3
  2  3  1  0
  2  4  1  0
  7  4  1  6
  4  5  1  0
  4  8  1  6
  5  6  1  1
  6  7  1  1
  8 20  1  0
  8  9  2  0
  9 10  1  0
 10 11  1  0
 10 12  2  0
 12 13  1  0
 13 14  1  0
 13 20  2  0
 14 19  1  0
 14 15  2  0
 15 16  1  0
 16 17  2  0
 17 18  1  0
 18 19  2  0
M  CHG  1   1   1
M  END
$$$$
