
     RDKit          3D

 20 22  0  0  0  0  0  0  0  0999 V2000
   19.6028   40.6095   60.0320 N   0  0  0  0  0  4  0  0  0  0  0  0
   20.2579   39.8292   60.8178 C   0  0  0  0  0  0  0  0  0  0  0  0
   19.5674   38.6706   61.2686 N   0  0  0  0  0  0  0  0  0  0  0  0
   21.6291   40.1665   61.2050 C   0  0  2  0  0  0  0  0  0  0  0  0
   22.2996   41.1977   60.3697 C   0  0  0  0  0  0  0  0  0  0  0  0
   23.5795   40.3907   60.5128 C   0  0  0  0  0  0  0  0  0  0  0  0
   22.6559   39.1678   60.6251 C   0  0  0  0  0  0  0  0  0  0  0  0
   21.9041   40.2539   62.6701 C   0  0  0  0  0  0  0  0  0  0  0  0
   20.9213   40.5092   63.6015 C   0  0  0  0  0  0  0  0  0  0  0  0
   21.2340   40.5991   64.9659 C   0  0  0  0  0  0  0  0  0  0  0  0
   19.9498   40.9254   66.1140 Cl  0  0  0  0  0  0  0  0  0  0  0  0
   22.5451   40.4267   65.3568 C   0  0  0  0  0  0  0  0  0  0  0  0
   23.5563   40.1700   64.4567 C   0  0  0  0  0  0  0  0  0  0  0  0
   24.9350   39.9925   64.9009 C   0  0  0  0  0  0  0  0  0  0  0  0
   26.0094   40.3913   64.1279 C   0  0  0  0  0  0  0  0  0  0  0  0
   27.3071   40.2168   64.5601 C   0  0  0  0  0  0  0  0  0  0  0  0
   27.5966   39.6389   65.7782 C   0  0  0  0  0  0  0  0  0  0  0  0
   26.5303   39.2382   66.5554 C   0  0  0  0  0  0  0  0  0  0  0  0
   25.2324   39.4130   66.1228 C   0  0  0  0  0  0  0  0  0  0  0  0
   23.1900   40.0905   63.1071 C   0  0  0  0  0  0  0  0  0  0  0  0
  1  2  2  3
  2  3  1  0
  2  4  1  0
  7  4  1  6
  4  5  1  0
  4  8  1  1
  5  6  1  1
  6  7  1  1
  8 20  1  0
  8  9  2  0
  9 10  1  0
 10 11  1  0
 10 12  2  0
 12 13  1  0
 13 14  1  0
 13 20  2  0
 14 19  1  0
 14 15  2  0
 15 16  1  0
 16 17  2  0
 17 18  1  0
 18 19  2  0
M  CHG  1   1   1
M  END
$$$$
