
     RDKit          3D

 20 22  0  0  0  0  0  0  0  0999 V2000
   17.4190   42.8011   57.5839 N   0  0  0  0  0  4  0  0  0  0  0  0
   16.7368   41.8249   57.0968 C   0  0  0  0  0  0  0  0  0  0  0  0
   16.5023   41.8628   55.6947 N   0  0  0  0  0  0  0  0  0  0  0  0
   16.2432   40.7667   57.9802 C   0  0  2  0  0  0  0  0  0  0  0  0
   16.2759   39.3905   57.4183 C   0  0  0  0  0  0  0  0  0  0  0  0
   14.9511   39.1404   58.1197 C   0  0  0  0  0  0  0  0  0  0  0  0
   14.7034   40.6454   57.9328 C   0  0  0  0  0  0  0  0  0  0  0  0
   16.6153   40.8765   59.4221 C   0  0  0  0  0  0  0  0  0  0  0  0
   15.7021   41.1757   60.4094 C   0  0  0  0  0  0  0  0  0  0  0  0
   16.1053   41.2850   61.7485 C   0  0  0  0  0  0  0  0  0  0  0  0
   14.9073   41.6674   62.9700 Cl  0  0  0  0  0  0  0  0  0  0  0  0
   17.4345   41.0868   62.0572 C   0  0  0  0  0  0  0  0  0  0  0  0
   18.3782   40.7860   61.0993 C   0  0  0  0  0  0  0  0  0  0  0  0
   19.7782   40.5820   61.4569 C   0  0  0  0  0  0  0  0  0  0  0  0
   20.6042   39.7449   60.7302 C   0  0  0  0  0  0  0  0  0  0  0  0
   21.9251   39.5611   61.0801 C   0  0  0  0  0  0  0  0  0  0  0  0
   22.4855   40.1995   62.1664 C   0  0  0  0  0  0  0  0  0  0  0  0
   21.6682   41.0364   62.8966 C   0  0  0  0  0  0  0  0  0  0  0  0
   20.3469   41.2200   62.5463 C   0  0  0  0  0  0  0  0  0  0  0  0
   17.9227   40.6888   59.7782 C   0  0  0  0  0  0  0  0  0  0  0  0
  1  2  2  3
  2  3  1  0
  2  4  1  0
  7  4  1  6
  4  5  1  0
  4  8  1  1
  5  6  1  1
  6  7  1  1
  8 20  1  0
  8  9  2  0
  9 10  1  0
 10 11  1  0
 10 12  2  0
 12 13  1  0
 13 14  1  0
 13 20  2  0
 14 19  1  0
 14 15  2  0
 15 16  1  0
 16 17  2  0
 17 18  1  0
 18 19  2  0
M  CHG  1   1   1
M  END
$$$$
