
     RDKit          3D

 20 22  0  0  0  0  0  0  0  0999 V2000
   11.9934   38.3162   82.3682 N   0  0  0  0  0  4  0  0  0  0  0  0
   11.0043   38.4148   81.5512 C   0  0  0  0  0  0  0  0  0  0  0  0
    9.9423   39.2707   81.9537 N   0  0  0  0  0  0  0  0  0  0  0  0
   11.0150   37.6589   80.2973 C   0  0  2  0  0  0  0  0  0  0  0  0
   10.4135   36.3005   80.3585 C   0  0  0  0  0  0  0  0  0  0  0  0
   11.5156   35.8390   79.4193 C   0  0  0  0  0  0  0  0  0  0  0  0
   12.3655   36.9450   80.0640 C   0  0  0  0  0  0  0  0  0  0  0  0
   10.7233   38.4308   79.0528 C   0  0  0  0  0  0  0  0  0  0  0  0
   11.6706   39.1957   78.4079 C   0  0  0  0  0  0  0  0  0  0  0  0
   11.3419   39.9170   77.2507 C   0  0  0  0  0  0  0  0  0  0  0  0
   12.5809   40.8764   76.4645 Cl  0  0  0  0  0  0  0  0  0  0  0  0
   10.0510   39.8451   76.7710 C   0  0  0  0  0  0  0  0  0  0  0  0
    9.0753   39.0918   77.3867 C   0  0  0  0  0  0  0  0  0  0  0  0
    7.7174   39.0359   76.8552 C   0  0  0  0  0  0  0  0  0  0  0  0
    6.6103   38.9833   77.6814 C   0  0  0  0  0  0  0  0  0  0  0  0
    5.3328   38.9301   77.1653 C   0  0  0  0  0  0  0  0  0  0  0  0
    5.0968   38.9267   75.8066 C   0  0  0  0  0  0  0  0  0  0  0  0
    6.1959   38.9790   74.9755 C   0  0  0  0  0  0  0  0  0  0  0  0
    7.4736   39.0322   75.4922 C   0  0  0  0  0  0  0  0  0  0  0  0
    9.4564   38.3916   78.5384 C   0  0  0  0  0  0  0  0  0  0  0  0
  1  2  2  3
  2  3  1  0
  2  4  1  0
  7  4  1  6
  4  5  1  0
  4  8  1  6
  5  6  1  1
  6  7  1  1
  8 20  1  0
  8  9  2  0
  9 10  1  0
 10 11  1  0
 10 12  2  0
 12 13  1  0
 13 14  1  0
 13 20  2  0
 14 19  1  0
 14 15  2  0
 15 16  1  0
 16 17  2  0
 17 18  1  0
 18 19  2  0
M  CHG  1   1   1
M  END
$$$$
