
     RDKit          3D

 20 22  0  0  0  0  0  0  0  0999 V2000
   26.1786   41.8397   71.5837 N   0  0  0  0  0  4  0  0  0  0  0  0
   26.8142   42.0465   70.4843 C   0  0  0  0  0  0  0  0  0  0  0  0
   26.8249   43.3870   70.0095 N   0  0  0  0  0  0  0  0  0  0  0  0
   27.4623   40.9294   69.7944 C   0  0  2  0  0  0  0  0  0  0  0  0
   27.7606   39.7391   70.6341 C   0  0  0  0  0  0  0  0  0  0  0  0
   29.0588   39.5950   69.8573 C   0  0  0  0  0  0  0  0  0  0  0  0
   28.9923   41.1214   69.6936 C   0  0  0  0  0  0  0  0  0  0  0  0
   26.9807   40.6315   68.4128 C   0  0  0  0  0  0  0  0  0  0  0  0
   25.7186   40.1460   68.1492 C   0  0  0  0  0  0  0  0  0  0  0  0
   25.3196   39.8651   66.8341 C   0  0  0  0  0  0  0  0  0  0  0  0
   23.7035   39.2488   66.5477 Cl  0  0  0  0  0  0  0  0  0  0  0  0
   26.2162   40.0850   65.8098 C   0  0  0  0  0  0  0  0  0  0  0  0
   27.4869   40.5694   66.0318 C   0  0  0  0  0  0  0  0  0  0  0  0
   28.4137   40.7915   64.9268 C   0  0  0  0  0  0  0  0  0  0  0  0
   28.5199   39.9045   63.8718 C   0  0  0  0  0  0  0  0  0  0  0  0
   29.4005   40.1268   62.8345 C   0  0  0  0  0  0  0  0  0  0  0  0
   30.2152   41.2389   62.7975 C   0  0  0  0  0  0  0  0  0  0  0  0
   30.1154   42.1288   63.8463 C   0  0  0  0  0  0  0  0  0  0  0  0
   29.2343   41.9060   64.8837 C   0  0  0  0  0  0  0  0  0  0  0  0
   27.8343   40.8330   67.3630 C   0  0  0  0  0  0  0  0  0  0  0  0
  1  2  2  3
  2  3  1  0
  2  4  1  0
  7  4  1  6
  4  5  1  0
  4  8  1  6
  5  6  1  1
  6  7  1  1
  8 20  1  0
  8  9  2  0
  9 10  1  0
 10 11  1  0
 10 12  2  0
 12 13  1  0
 13 14  1  0
 13 20  2  0
 14 19  1  0
 14 15  2  0
 15 16  1  0
 16 17  2  0
 17 18  1  0
 18 19  2  0
M  CHG  1   1   1
M  END
$$$$
