
     RDKit          3D

 20 22  0  0  0  0  0  0  0  0999 V2000
   28.3052   40.5035   71.7762 N   0  0  0  0  0  4  0  0  0  0  0  0
   27.1029   40.9293   71.6067 C   0  0  0  0  0  0  0  0  0  0  0  0
   26.9199   42.3373   71.6862 N   0  0  0  0  0  0  0  0  0  0  0  0
   26.0188   39.9763   71.3607 C   0  0  2  0  0  0  0  0  0  0  0  0
   25.0665   39.7790   72.4854 C   0  0  0  0  0  0  0  0  0  0  0  0
   25.0268   38.3068   72.1104 C   0  0  0  0  0  0  0  0  0  0  0  0
   26.4639   38.5175   71.6089 C   0  0  0  0  0  0  0  0  0  0  0  0
   25.4032   40.0059   70.0006 C   0  0  0  0  0  0  0  0  0  0  0  0
   24.0728   40.2945   69.7881 C   0  0  0  0  0  0  0  0  0  0  0  0
   23.5379   40.2923   68.4914 C   0  0  0  0  0  0  0  0  0  0  0  0
   21.8394   40.6659   68.2702 Cl  0  0  0  0  0  0  0  0  0  0  0  0
   24.3706   39.9955   67.4330 C   0  0  0  0  0  0  0  0  0  0  0  0
   25.7059   39.7017   67.6038 C   0  0  0  0  0  0  0  0  0  0  0  0
   26.5622   39.3911   66.4637 C   0  0  0  0  0  0  0  0  0  0  0  0
   26.0802   38.7414   65.3426 C   0  0  0  0  0  0  0  0  0  0  0  0
   26.9009   38.4538   64.2728 C   0  0  0  0  0  0  0  0  0  0  0  0
   28.2363   38.7977   64.2673 C   0  0  0  0  0  0  0  0  0  0  0  0
   28.7251   39.4461   65.3819 C   0  0  0  0  0  0  0  0  0  0  0  0
   27.9037   39.7337   66.4519 C   0  0  0  0  0  0  0  0  0  0  0  0
   26.1888   39.7176   68.9186 C   0  0  0  0  0  0  0  0  0  0  0  0
  1  2  2  3
  2  3  1  0
  2  4  1  0
  7  4  1  6
  4  5  1  0
  4  8  1  6
  5  6  1  1
  6  7  1  1
  8 20  1  0
  8  9  2  0
  9 10  1  0
 10 11  1  0
 10 12  2  0
 12 13  1  0
 13 14  1  0
 13 20  2  0
 14 19  1  0
 14 15  2  0
 15 16  1  0
 16 17  2  0
 17 18  1  0
 18 19  2  0
M  CHG  1   1   1
M  END
$$$$
