
     RDKit          3D

 20 22  0  0  0  0  0  0  0  0999 V2000
   27.7494   51.2247   48.5148 N   0  0  0  0  0  4  0  0  0  0  0  0
   27.9463   49.9862   48.2269 C   0  0  0  0  0  0  0  0  0  0  0  0
   26.7806   49.1909   48.0511 N   0  0  0  0  0  0  0  0  0  0  0  0
   29.3123   49.4720   48.1101 C   0  0  2  0  0  0  0  0  0  0  0  0
   30.1211   49.5019   49.3574 C   0  0  0  0  0  0  0  0  0  0  0  0
   31.3163   49.8805   48.4985 C   0  0  0  0  0  0  0  0  0  0  0  0
   30.2878   50.5403   47.5669 C   0  0  0  0  0  0  0  0  0  0  0  0
   29.4959   48.2589   47.2591 C   0  0  0  0  0  0  0  0  0  0  0  0
   29.6913   47.0000   47.7838 C   0  0  0  0  0  0  0  0  0  0  0  0
   29.8765   45.8939   46.9413 C   0  0  0  0  0  0  0  0  0  0  0  0
   30.1216   44.3114   47.6549 Cl  0  0  0  0  0  0  0  0  0  0  0  0
   29.8588   46.0917   45.5767 C   0  0  0  0  0  0  0  0  0  0  0  0
   29.6662   47.3342   45.0130 C   0  0  0  0  0  0  0  0  0  0  0  0
   29.6529   47.5120   43.5647 C   0  0  0  0  0  0  0  0  0  0  0  0
   30.3412   48.5400   42.9477 C   0  0  0  0  0  0  0  0  0  0  0  0
   30.3192   48.6964   41.5780 C   0  0  0  0  0  0  0  0  0  0  0  0
   29.6135   47.8400   40.7594 C   0  0  0  0  0  0  0  0  0  0  0  0
   28.9241   46.8118   41.3670 C   0  0  0  0  0  0  0  0  0  0  0  0
   28.9463   46.6558   42.7371 C   0  0  0  0  0  0  0  0  0  0  0  0
   29.4866   48.4042   45.8990 C   0  0  0  0  0  0  0  0  0  0  0  0
  1  2  2  3
  2  3  1  0
  2  4  1  0
  7  4  1  6
  4  5  1  0
  4  8  1  6
  5  6  1  1
  6  7  1  1
  8 20  1  0
  8  9  2  0
  9 10  1  0
 10 11  1  0
 10 12  2  0
 12 13  1  0
 13 14  1  0
 13 20  2  0
 14 19  1  0
 14 15  2  0
 15 16  1  0
 16 17  2  0
 17 18  1  0
 18 19  2  0
M  CHG  1   1   1
M  END
$$$$
