
     RDKit          3D

 14 15  0  0  0  0  0  0  0  0999 V2000
   24.9559   47.5884   45.8461 N   0  0  0  0  0  4  0  0  0  0  0  0
   25.4092   48.5133   46.6021 C   0  0  0  0  0  0  0  0  0  0  0  0
   26.5915   48.2640   47.3830 N   0  0  0  0  0  0  0  0  0  0  0  0
   24.7479   49.8294   46.7081 C   0  0  2  0  0  0  0  0  0  0  0  0
   24.3411   50.4715   45.3953 C   0  0  0  0  0  0  0  0  0  0  0  0
   24.9158   51.8003   45.9175 C   0  0  0  0  0  0  0  0  0  0  0  0
   25.7753   50.9384   46.8537 C   0  0  0  0  0  0  0  0  0  0  0  0
   23.6801   49.8130   47.7265 C   0  0  0  0  0  0  0  0  0  0  0  0
   23.8294   50.2441   49.0118 C   0  0  0  0  0  0  0  0  0  0  0  0
   22.7978   50.2059   49.9349 C   0  0  0  0  0  0  0  0  0  0  0  0
   23.0465   50.7711   51.5670 Cl  0  0  0  0  0  0  0  0  0  0  0  0
   21.5653   49.7212   49.5732 C   0  0  0  0  0  0  0  0  0  0  0  0
   21.3836   49.2767   48.2752 C   0  0  0  0  0  0  0  0  0  0  0  0
   22.4266   49.3244   47.3727 C   0  0  0  0  0  0  0  0  0  0  0  0
  1  2  2  3
  2  3  1  0
  2  4  1  0
  7  4  1  6
  4  5  1  0
  4  8  1  1
  5  6  1  1
  6  7  1  1
  8 14  1  0
  8  9  2  0
  9 10  1  0
 10 11  1  0
 10 12  2  0
 12 13  1  0
 13 14  2  0
M  CHG  1   1   1
M  END
$$$$
