
     RDKit          3D

 14 15  0  0  0  0  0  0  0  0999 V2000
   27.2577   49.4878   43.8843 N   0  0  0  0  0  4  0  0  0  0  0  0
   28.1749   49.6686   44.7553 C   0  0  0  0  0  0  0  0  0  0  0  0
   27.9456   50.5932   45.8333 N   0  0  0  0  0  0  0  0  0  0  0  0
   29.4710   48.9647   44.6819 C   0  0  2  0  0  0  0  0  0  0  0  0
   30.7043   49.8346   44.8348 C   0  0  0  0  0  0  0  0  0  0  0  0
   31.3280   49.0837   43.6449 C   0  0  0  0  0  0  0  0  0  0  0  0
   29.8859   48.7490   43.2369 C   0  0  0  0  0  0  0  0  0  0  0  0
   29.4758   47.7588   45.5324 C   0  0  0  0  0  0  0  0  0  0  0  0
   30.5843   47.0176   45.8186 C   0  0  0  0  0  0  0  0  0  0  0  0
   30.5395   45.8894   46.6201 C   0  0  0  0  0  0  0  0  0  0  0  0
   31.9907   44.9791   46.9525 Cl  0  0  0  0  0  0  0  0  0  0  0  0
   29.3485   45.4749   47.1628 C   0  0  0  0  0  0  0  0  0  0  0  0
   28.2063   46.2071   46.8901 C   0  0  0  0  0  0  0  0  0  0  0  0
   28.2755   47.3283   46.0883 C   0  0  0  0  0  0  0  0  0  0  0  0
  1  2  2  3
  2  3  1  0
  2  4  1  0
  7  4  1  6
  4  5  1  0
  4  8  1  1
  5  6  1  1
  6  7  1  1
  8 14  1  0
  8  9  2  0
  9 10  1  0
 10 11  1  0
 10 12  2  0
 12 13  1  0
 13 14  2  0
M  CHG  1   1   1
M  END
$$$$
