
     RDKit          3D

 14 15  0  0  0  0  0  0  0  0999 V2000
   27.9100   49.7227   45.5099 N   0  0  0  0  0  4  0  0  0  0  0  0
   29.1578   49.6335   45.7697 C   0  0  0  0  0  0  0  0  0  0  0  0
   30.1120   49.9096   44.7291 N   0  0  0  0  0  0  0  0  0  0  0  0
   29.6511   49.2428   47.1056 C   0  0  2  0  0  0  0  0  0  0  0  0
   28.6749   49.4321   48.2513 C   0  0  0  0  0  0  0  0  0  0  0  0
   29.8242   50.0440   49.0718 C   0  0  0  0  0  0  0  0  0  0  0  0
   30.4821   50.3558   47.7198 C   0  0  0  0  0  0  0  0  0  0  0  0
   30.2914   47.9137   47.0738 C   0  0  0  0  0  0  0  0  0  0  0  0
   29.6248   46.7301   47.1957 C   0  0  0  0  0  0  0  0  0  0  0  0
   30.2698   45.5051   47.1635 C   0  0  0  0  0  0  0  0  0  0  0  0
   29.3651   44.0217   47.3247 Cl  0  0  0  0  0  0  0  0  0  0  0  0
   31.6321   45.4462   47.0040 C   0  0  0  0  0  0  0  0  0  0  0  0
   32.3357   46.6311   46.8775 C   0  0  0  0  0  0  0  0  0  0  0  0
   31.6711   47.8402   46.9126 C   0  0  0  0  0  0  0  0  0  0  0  0
  1  2  2  3
  2  3  1  0
  2  4  1  0
  7  4  1  6
  4  5  1  0
  4  8  1  6
  5  6  1  1
  6  7  1  1
  8 14  1  0
  8  9  2  0
  9 10  1  0
 10 11  1  0
 10 12  2  0
 12 13  1  0
 13 14  2  0
M  CHG  1   1   1
M  END
$$$$
