
     RDKit          3D

 14 15  0  0  0  0  0  0  0  0999 V2000
   16.3951   42.2762   54.5458 N   0  0  0  0  0  4  0  0  0  0  0  0
   15.3020   41.8466   55.0490 C   0  0  0  0  0  0  0  0  0  0  0  0
   14.1493   42.7072   55.0598 N   0  0  0  0  0  0  0  0  0  0  0  0
   15.1892   40.4945   55.6319 C   0  0  2  0  0  0  0  0  0  0  0  0
   15.9259   39.3934   54.8930 C   0  0  0  0  0  0  0  0  0  0  0  0
   14.6741   38.5116   55.0484 C   0  0  0  0  0  0  0  0  0  0  0  0
   13.8959   39.8269   55.1979 C   0  0  0  0  0  0  0  0  0  0  0  0
   15.4384   40.5145   57.0862 C   0  0  0  0  0  0  0  0  0  0  0  0
   16.6232   40.1802   57.6733 C   0  0  0  0  0  0  0  0  0  0  0  0
   16.8094   40.2104   59.0452 C   0  0  0  0  0  0  0  0  0  0  0  0
   18.3482   39.7717   59.7414 Cl  0  0  0  0  0  0  0  0  0  0  0  0
   15.7813   40.5873   59.8733 C   0  0  0  0  0  0  0  0  0  0  0  0
   14.5670   40.9323   59.3063 C   0  0  0  0  0  0  0  0  0  0  0  0
   14.4049   40.8945   57.9362 C   0  0  0  0  0  0  0  0  0  0  0  0
  1  2  2  3
  2  3  1  0
  2  4  1  0
  7  4  1  6
  4  5  1  0
  4  8  1  1
  5  6  1  1
  6  7  1  1
  8 14  1  0
  8  9  2  0
  9 10  1  0
 10 11  1  0
 10 12  2  0
 12 13  1  0
 13 14  2  0
M  CHG  1   1   1
M  END
$$$$
