
     RDKit          3D

 14 15  0  0  0  0  0  0  0  0999 V2000
   11.9505   40.9935   55.3623 N   0  0  0  0  0  4  0  0  0  0  0  0
   12.8413   40.1453   55.7078 C   0  0  0  0  0  0  0  0  0  0  0  0
   12.9817   38.9290   54.9524 N   0  0  0  0  0  0  0  0  0  0  0  0
   13.7252   40.3705   56.8691 C   0  0  2  0  0  0  0  0  0  0  0  0
   13.4778   39.4776   58.0702 C   0  0  0  0  0  0  0  0  0  0  0  0
   13.5947   40.7237   58.9658 C   0  0  0  0  0  0  0  0  0  0  0  0
   13.2219   41.5290   57.7125 C   0  0  0  0  0  0  0  0  0  0  0  0
   15.1405   40.4493   56.4591 C   0  0  0  0  0  0  0  0  0  0  0  0
   16.1311   39.6428   56.9370 C   0  0  0  0  0  0  0  0  0  0  0  0
   17.4482   39.7565   56.5249 C   0  0  0  0  0  0  0  0  0  0  0  0
   18.6746   38.6965   57.1710 Cl  0  0  0  0  0  0  0  0  0  0  0  0
   17.8027   40.7078   55.6006 C   0  0  0  0  0  0  0  0  0  0  0  0
   16.8190   41.5410   55.0974 C   0  0  0  0  0  0  0  0  0  0  0  0
   15.5128   41.4089   55.5233 C   0  0  0  0  0  0  0  0  0  0  0  0
  1  2  2  3
  2  3  1  0
  2  4  1  0
  7  4  1  6
  4  5  1  0
  4  8  1  6
  5  6  1  1
  6  7  1  1
  8 14  1  0
  8  9  2  0
  9 10  1  0
 10 11  1  0
 10 12  2  0
 12 13  1  0
 13 14  2  0
M  CHG  1   1   1
M  END
$$$$
