
     RDKit          3D

 14 15  0  0  0  0  0  0  0  0999 V2000
   20.7306   42.0992   65.9048 N   0  0  0  0  0  4  0  0  0  0  0  0
   20.6764   41.3396   64.8788 C   0  0  0  0  0  0  0  0  0  0  0  0
   19.5202   41.3966   64.0247 N   0  0  0  0  0  0  0  0  0  0  0  0
   21.7617   40.3941   64.5492 C   0  0  2  0  0  0  0  0  0  0  0  0
   21.6085   38.9922   65.1083 C   0  0  0  0  0  0  0  0  0  0  0  0
   23.0901   39.0424   65.5220 C   0  0  0  0  0  0  0  0  0  0  0  0
   22.9357   40.5700   65.4965 C   0  0  0  0  0  0  0  0  0  0  0  0
   22.0918   40.4360   63.1116 C   0  0  0  0  0  0  0  0  0  0  0  0
   21.4323   39.7353   62.1450 C   0  0  0  0  0  0  0  0  0  0  0  0
   21.7809   39.8034   60.8066 C   0  0  0  0  0  0  0  0  0  0  0  0
   20.9009   38.8841   59.6127 Cl  0  0  0  0  0  0  0  0  0  0  0  0
   22.8262   40.5978   60.4050 C   0  0  0  0  0  0  0  0  0  0  0  0
   23.5145   41.3209   61.3635 C   0  0  0  0  0  0  0  0  0  0  0  0
   23.1487   41.2370   62.6916 C   0  0  0  0  0  0  0  0  0  0  0  0
  1  2  2  3
  2  3  1  0
  2  4  1  0
  7  4  1  6
  4  5  1  0
  4  8  1  6
  5  6  1  1
  6  7  1  1
  8 14  1  0
  8  9  2  0
  9 10  1  0
 10 11  1  0
 10 12  2  0
 12 13  1  0
 13 14  2  0
M  CHG  1   1   1
M  END
$$$$
