
     RDKit          3D

 14 15  0  0  0  0  0  0  0  0999 V2000
   31.8584   50.5856   48.4959 N   0  0  0  0  0  4  0  0  0  0  0  0
   31.5191   49.7475   47.5930 C   0  0  0  0  0  0  0  0  0  0  0  0
   32.5326   49.1906   46.7372 N   0  0  0  0  0  0  0  0  0  0  0  0
   30.1135   49.3416   47.3930 C   0  0  2  0  0  0  0  0  0  0  0  0
   29.2371   50.3374   46.6571 C   0  0  0  0  0  0  0  0  0  0  0  0
   28.1450   50.0904   47.7130 C   0  0  0  0  0  0  0  0  0  0  0  0
   29.2867   49.6338   48.6330 C   0  0  0  0  0  0  0  0  0  0  0  0
   30.0214   47.9623   46.8769 C   0  0  0  0  0  0  0  0  0  0  0  0
   30.0823   46.8405   47.6502 C   0  0  0  0  0  0  0  0  0  0  0  0
   29.9949   45.5644   47.1199 C   0  0  0  0  0  0  0  0  0  0  0  0
   30.0792   44.1645   48.1582 Cl  0  0  0  0  0  0  0  0  0  0  0  0
   29.8406   45.3880   45.7671 C   0  0  0  0  0  0  0  0  0  0  0  0
   29.7754   46.5079   44.9566 C   0  0  0  0  0  0  0  0  0  0  0  0
   29.8649   47.7699   45.5081 C   0  0  0  0  0  0  0  0  0  0  0  0
  1  2  2  3
  2  3  1  0
  2  4  1  0
  7  4  1  6
  4  5  1  0
  4  8  1  6
  5  6  1  1
  6  7  1  1
  8 14  1  0
  8  9  2  0
  9 10  1  0
 10 11  1  0
 10 12  2  0
 12 13  1  0
 13 14  2  0
M  CHG  1   1   1
M  END
$$$$
