
     RDKit          3D

 14 15  0  0  0  0  0  0  0  0999 V2000
   31.9487   50.8641   46.7972 N   0  0  0  0  0  4  0  0  0  0  0  0
   31.6337   49.7667   47.3707 C   0  0  0  0  0  0  0  0  0  0  0  0
   32.6635   48.9839   48.0003 N   0  0  0  0  0  0  0  0  0  0  0  0
   30.2432   49.2703   47.3964 C   0  0  2  0  0  0  0  0  0  0  0  0
   29.1750   50.2789   47.0185 C   0  0  0  0  0  0  0  0  0  0  0  0
   28.3482   49.7882   48.2203 C   0  0  0  0  0  0  0  0  0  0  0  0
   29.6834   49.3086   48.8077 C   0  0  0  0  0  0  0  0  0  0  0  0
   30.1224   47.9757   46.6986 C   0  0  0  0  0  0  0  0  0  0  0  0
   30.1033   46.7609   47.3183 C   0  0  0  0  0  0  0  0  0  0  0  0
   29.9919   45.5702   46.6202 C   0  0  0  0  0  0  0  0  0  0  0  0
   29.9730   44.0442   47.4663 Cl  0  0  0  0  0  0  0  0  0  0  0  0
   29.8950   45.5792   45.2507 C   0  0  0  0  0  0  0  0  0  0  0  0
   29.9114   46.7972   44.5939 C   0  0  0  0  0  0  0  0  0  0  0  0
   30.0234   47.9711   45.3110 C   0  0  0  0  0  0  0  0  0  0  0  0
  1  2  2  3
  2  3  1  0
  2  4  1  0
  7  4  1  6
  4  5  1  0
  4  8  1  6
  5  6  1  1
  6  7  1  1
  8 14  1  0
  8  9  2  0
  9 10  1  0
 10 11  1  0
 10 12  2  0
 12 13  1  0
 13 14  2  0
M  CHG  1   1   1
M  END
$$$$
