
     RDKit          3D

 14 15  0  0  0  0  0  0  0  0999 V2000
   11.4175   48.7932   67.7662 N   0  0  0  0  0  4  0  0  0  0  0  0
   11.3779   48.3520   66.5677 C   0  0  0  0  0  0  0  0  0  0  0  0
   12.2762   48.9025   65.5880 N   0  0  0  0  0  0  0  0  0  0  0  0
   10.4275   47.3003   66.1539 C   0  0  2  0  0  0  0  0  0  0  0  0
    9.5431   47.6388   64.9688 C   0  0  0  0  0  0  0  0  0  0  0  0
    8.3507   47.0558   65.7478 C   0  0  0  0  0  0  0  0  0  0  0  0
    9.1751   47.3379   67.0122 C   0  0  0  0  0  0  0  0  0  0  0  0
   11.0914   45.9863   66.0535 C   0  0  0  0  0  0  0  0  0  0  0  0
   12.4305   45.8077   65.8663 C   0  0  0  0  0  0  0  0  0  0  0  0
   13.0090   44.5529   65.7743 C   0  0  0  0  0  0  0  0  0  0  0  0
   14.7292   44.3845   65.5343 Cl  0  0  0  0  0  0  0  0  0  0  0  0
   12.2316   43.4255   65.8715 C   0  0  0  0  0  0  0  0  0  0  0  0
   10.8690   43.5752   66.0618 C   0  0  0  0  0  0  0  0  0  0  0  0
   10.3150   44.8361   66.1504 C   0  0  0  0  0  0  0  0  0  0  0  0
  1  2  2  3
  2  3  1  0
  2  4  1  0
  7  4  1  6
  4  5  1  0
  4  8  1  6
  5  6  1  1
  6  7  1  1
  8 14  1  0
  8  9  2  0
  9 10  1  0
 10 11  1  0
 10 12  2  0
 12 13  1  0
 13 14  2  0
M  CHG  1   1   1
M  END
$$$$
