
     RDKit          3D

 14 15  0  0  0  0  0  0  0  0999 V2000
   28.8689   41.0949   64.5609 N   0  0  0  0  0  4  0  0  0  0  0  0
   28.8704   40.2031   65.4759 C   0  0  0  0  0  0  0  0  0  0  0  0
   29.2941   38.8670   65.1517 N   0  0  0  0  0  0  0  0  0  0  0  0
   28.4381   40.5000   66.8563 C   0  0  2  0  0  0  0  0  0  0  0  0
   28.4476   41.9648   67.2505 C   0  0  0  0  0  0  0  0  0  0  0  0
   29.1123   41.5583   68.5777 C   0  0  0  0  0  0  0  0  0  0  0  0
   29.5828   40.2998   67.8342 C   0  0  0  0  0  0  0  0  0  0  0  0
   27.1853   39.7952   67.1897 C   0  0  0  0  0  0  0  0  0  0  0  0
   25.9963   39.9846   66.5490 C   0  0  0  0  0  0  0  0  0  0  0  0
   24.8438   39.3018   66.9001 C   0  0  0  0  0  0  0  0  0  0  0  0
   23.3495   39.5850   66.0446 Cl  0  0  0  0  0  0  0  0  0  0  0  0
   24.8663   38.3923   67.9282 C   0  0  0  0  0  0  0  0  0  0  0  0
   26.0589   38.1786   68.5971 C   0  0  0  0  0  0  0  0  0  0  0  0
   27.1947   38.8711   68.2294 C   0  0  0  0  0  0  0  0  0  0  0  0
  1  2  2  3
  2  3  1  0
  2  4  1  0
  7  4  1  6
  4  5  1  0
  4  8  1  1
  5  6  1  1
  6  7  1  1
  8 14  1  0
  8  9  2  0
  9 10  1  0
 10 11  1  0
 10 12  2  0
 12 13  1  0
 13 14  2  0
M  CHG  1   1   1
M  END
$$$$
