
     RDKit          3D

 14 15  0  0  0  0  0  0  0  0999 V2000
   12.6310   48.9489   53.3116 N   0  0  0  0  0  4  0  0  0  0  0  0
   11.9927   47.8974   52.9660 C   0  0  0  0  0  0  0  0  0  0  0  0
   11.4815   47.7966   51.6251 N   0  0  0  0  0  0  0  0  0  0  0  0
   11.7527   46.7850   53.9072 C   0  0  2  0  0  0  0  0  0  0  0  0
   10.3712   46.1607   53.8529 C   0  0  0  0  0  0  0  0  0  0  0  0
   10.3463   46.1876   55.3915 C   0  0  0  0  0  0  0  0  0  0  0  0
   11.3853   47.3131   55.2830 C   0  0  0  0  0  0  0  0  0  0  0  0
   12.8569   45.8068   53.8748 C   0  0  0  0  0  0  0  0  0  0  0  0
   12.9246   44.6895   54.6540 C   0  0  0  0  0  0  0  0  0  0  0  0
   13.9846   43.8006   54.5913 C   0  0  0  0  0  0  0  0  0  0  0  0
   14.0181   42.3865   55.6132 Cl  0  0  0  0  0  0  0  0  0  0  0  0
   15.0228   44.0244   53.7214 C   0  0  0  0  0  0  0  0  0  0  0  0
   14.9819   45.1502   52.9175 C   0  0  0  0  0  0  0  0  0  0  0  0
   13.9150   46.0220   52.9976 C   0  0  0  0  0  0  0  0  0  0  0  0
  1  2  2  3
  2  3  1  0
  2  4  1  0
  7  4  1  6
  4  5  1  0
  4  8  1  1
  5  6  1  1
  6  7  1  1
  8 14  1  0
  8  9  2  0
  9 10  1  0
 10 11  1  0
 10 12  2  0
 12 13  1  0
 13 14  2  0
M  CHG  1   1   1
M  END
$$$$
