
     RDKit          3D

 14 15  0  0  0  0  0  0  0  0999 V2000
   18.2073   39.8826   67.3566 N   0  0  0  0  0  4  0  0  0  0  0  0
   18.2955   41.0512   66.8475 C   0  0  0  0  0  0  0  0  0  0  0  0
   17.5400   42.1282   67.4295 N   0  0  0  0  0  0  0  0  0  0  0  0
   19.1420   41.3277   65.6696 C   0  0  2  0  0  0  0  0  0  0  0  0
   20.4477   40.5585   65.5995 C   0  0  0  0  0  0  0  0  0  0  0  0
   21.1484   41.8698   65.2021 C   0  0  0  0  0  0  0  0  0  0  0  0
   19.9714   42.5817   65.8846 C   0  0  0  0  0  0  0  0  0  0  0  0
   18.3545   41.2915   64.4222 C   0  0  0  0  0  0  0  0  0  0  0  0
   18.4122   40.2893   63.4989 C   0  0  0  0  0  0  0  0  0  0  0  0
   17.6558   40.3004   62.3391 C   0  0  0  0  0  0  0  0  0  0  0  0
   17.7706   38.9900   61.1925 Cl  0  0  0  0  0  0  0  0  0  0  0  0
   16.8053   41.3464   62.0796 C   0  0  0  0  0  0  0  0  0  0  0  0
   16.7252   42.3782   62.9984 C   0  0  0  0  0  0  0  0  0  0  0  0
   17.4890   42.3453   64.1474 C   0  0  0  0  0  0  0  0  0  0  0  0
  1  2  2  3
  2  3  1  0
  2  4  1  0
  7  4  1  6
  4  5  1  0
  4  8  1  6
  5  6  1  1
  6  7  1  1
  8 14  1  0
  8  9  2  0
  9 10  1  0
 10 11  1  0
 10 12  2  0
 12 13  1  0
 13 14  2  0
M  CHG  1   1   1
M  END
$$$$
