
     RDKit          3D

 14 15  0  0  0  0  0  0  0  0999 V2000
   28.7304   48.1734   42.8412 N   0  0  0  0  0  4  0  0  0  0  0  0
   28.1287   48.5958   43.8863 C   0  0  0  0  0  0  0  0  0  0  0  0
   26.7018   48.4405   43.9846 N   0  0  0  0  0  0  0  0  0  0  0  0
   28.8536   49.2509   44.9935 C   0  0  2  0  0  0  0  0  0  0  0  0
   28.1894   50.4820   45.5805 C   0  0  0  0  0  0  0  0  0  0  0  0
   29.5608   51.1800   45.5557 C   0  0  0  0  0  0  0  0  0  0  0  0
   29.9350   50.1732   44.4583 C   0  0  0  0  0  0  0  0  0  0  0  0
   29.2966   48.2679   46.0009 C   0  0  0  0  0  0  0  0  0  0  0  0
   28.9410   46.9512   46.0066 C   0  0  0  0  0  0  0  0  0  0  0  0
   29.3793   46.0653   46.9765 C   0  0  0  0  0  0  0  0  0  0  0  0
   28.8917   44.3904   46.9337 Cl  0  0  0  0  0  0  0  0  0  0  0  0
   30.2045   46.4983   47.9847 C   0  0  0  0  0  0  0  0  0  0  0  0
   30.5825   47.8294   48.0052 C   0  0  0  0  0  0  0  0  0  0  0  0
   30.1330   48.6938   47.0277 C   0  0  0  0  0  0  0  0  0  0  0  0
  1  2  2  3
  2  3  1  0
  2  4  1  0
  7  4  1  6
  4  5  1  0
  4  8  1  1
  5  6  1  1
  6  7  1  1
  8 14  1  0
  8  9  2  0
  9 10  1  0
 10 11  1  0
 10 12  2  0
 12 13  1  0
 13 14  2  0
M  CHG  1   1   1
M  END
$$$$
