
     RDKit          3D

 14 15  0  0  0  0  0  0  0  0999 V2000
   30.2116   38.6025   66.8548 N   0  0  0  0  0  4  0  0  0  0  0  0
   28.9596   38.3687   66.9566 C   0  0  0  0  0  0  0  0  0  0  0  0
   28.4747   37.0339   66.7264 N   0  0  0  0  0  0  0  0  0  0  0  0
   27.9916   39.4320   67.2924 C   0  0  2  0  0  0  0  0  0  0  0  0
   28.5535   40.6225   68.0463 C   0  0  0  0  0  0  0  0  0  0  0  0
   27.3306   40.5542   68.9782 C   0  0  0  0  0  0  0  0  0  0  0  0
   27.2231   39.0820   68.5547 C   0  0  0  0  0  0  0  0  0  0  0  0
   27.1659   39.7946   66.1244 C   0  0  0  0  0  0  0  0  0  0  0  0
   25.9122   39.3145   65.8834 C   0  0  0  0  0  0  0  0  0  0  0  0
   25.1755   39.6811   64.7697 C   0  0  0  0  0  0  0  0  0  0  0  0
   23.5752   39.0345   64.5125 Cl  0  0  0  0  0  0  0  0  0  0  0  0
   25.6992   40.5598   63.8541 C   0  0  0  0  0  0  0  0  0  0  0  0
   26.9695   41.0640   64.0718 C   0  0  0  0  0  0  0  0  0  0  0  0
   27.6849   40.6840   65.1892 C   0  0  0  0  0  0  0  0  0  0  0  0
  1  2  2  3
  2  3  1  0
  2  4  1  0
  7  4  1  6
  4  5  1  0
  4  8  1  6
  5  6  1  1
  6  7  1  1
  8 14  1  0
  8  9  2  0
  9 10  1  0
 10 11  1  0
 10 12  2  0
 12 13  1  0
 13 14  2  0
M  CHG  1   1   1
M  END
$$$$
