
     RDKit          3D

 14 15  0  0  0  0  0  0  0  0999 V2000
   11.2377   43.8922   60.6024 N   0  0  0  0  0  4  0  0  0  0  0  0
   10.3086   43.6302   61.4395 C   0  0  0  0  0  0  0  0  0  0  0  0
    9.9692   42.2573   61.7031 N   0  0  0  0  0  0  0  0  0  0  0  0
    9.5627   44.6968   62.1370 C   0  0  2  0  0  0  0  0  0  0  0  0
    8.1030   44.8428   61.7505 C   0  0  0  0  0  0  0  0  0  0  0  0
    8.3162   46.3658   61.6913 C   0  0  0  0  0  0  0  0  0  0  0  0
    9.8018   46.0428   61.4753 C   0  0  0  0  0  0  0  0  0  0  0  0
    9.7982   44.6525   63.5930 C   0  0  0  0  0  0  0  0  0  0  0  0
   10.9893   44.9368   64.1937 C   0  0  0  0  0  0  0  0  0  0  0  0
   11.1643   44.8780   65.5661 C   0  0  0  0  0  0  0  0  0  0  0  0
   12.7119   45.2525   66.2799 Cl  0  0  0  0  0  0  0  0  0  0  0  0
   10.1179   44.5232   66.3809 C   0  0  0  0  0  0  0  0  0  0  0  0
    8.8967   44.2291   65.8000 C   0  0  0  0  0  0  0  0  0  0  0  0
    8.7461   44.2944   64.4297 C   0  0  0  0  0  0  0  0  0  0  0  0
  1  2  2  3
  2  3  1  0
  2  4  1  0
  7  4  1  6
  4  5  1  0
  4  8  1  1
  5  6  1  1
  6  7  1  1
  8 14  1  0
  8  9  2  0
  9 10  1  0
 10 11  1  0
 10 12  2  0
 12 13  1  0
 13 14  2  0
M  CHG  1   1   1
M  END
$$$$
