
     RDKit          3D

 14 15  0  0  0  0  0  0  0  0999 V2000
   12.9591   41.9975   55.4155 N   0  0  0  0  0  4  0  0  0  0  0  0
   13.7005   41.6245   56.3870 C   0  0  0  0  0  0  0  0  0  0  0  0
   13.2352   41.8107   57.7355 N   0  0  0  0  0  0  0  0  0  0  0  0
   15.0287   41.0179   56.1673 C   0  0  2  0  0  0  0  0  0  0  0  0
   15.8178   41.5640   54.9924 C   0  0  0  0  0  0  0  0  0  0  0  0
   16.1644   40.1147   54.6077 C   0  0  0  0  0  0  0  0  0  0  0  0
   14.9056   39.7175   55.3925 C   0  0  0  0  0  0  0  0  0  0  0  0
   15.7976   40.9396   57.4244 C   0  0  0  0  0  0  0  0  0  0  0  0
   15.5151   40.0899   58.4531 C   0  0  0  0  0  0  0  0  0  0  0  0
   16.2640   40.0547   59.6174 C   0  0  0  0  0  0  0  0  0  0  0  0
   15.8558   38.9461   60.9016 Cl  0  0  0  0  0  0  0  0  0  0  0  0
   17.3387   40.8948   59.7726 C   0  0  0  0  0  0  0  0  0  0  0  0
   17.6500   41.7683   58.7453 C   0  0  0  0  0  0  0  0  0  0  0  0
   16.8889   41.7854   57.5942 C   0  0  0  0  0  0  0  0  0  0  0  0
  1  2  2  3
  2  3  1  0
  2  4  1  0
  7  4  1  6
  4  5  1  0
  4  8  1  1
  5  6  1  1
  6  7  1  1
  8 14  1  0
  8  9  2  0
  9 10  1  0
 10 11  1  0
 10 12  2  0
 12 13  1  0
 13 14  2  0
M  CHG  1   1   1
M  END
$$$$
