
     RDKit          3D

 14 15  0  0  0  0  0  0  0  0999 V2000
   26.3000   48.7941   44.5101 N   0  0  0  0  0  4  0  0  0  0  0  0
   27.4776   49.1443   44.8613 C   0  0  0  0  0  0  0  0  0  0  0  0
   28.4344   49.5007   43.8479 N   0  0  0  0  0  0  0  0  0  0  0  0
   27.8906   49.1827   46.2785 C   0  0  2  0  0  0  0  0  0  0  0  0
   26.7666   49.1260   47.2956 C   0  0  0  0  0  0  0  0  0  0  0  0
   27.4652   50.2604   48.0661 C   0  0  0  0  0  0  0  0  0  0  0  0
   28.1352   50.6120   46.7299 C   0  0  0  0  0  0  0  0  0  0  0  0
   28.9900   48.2346   46.5430 C   0  0  0  0  0  0  0  0  0  0  0  0
   28.8297   46.8907   46.7118 C   0  0  0  0  0  0  0  0  0  0  0  0
   29.8927   46.0393   46.9623 C   0  0  0  0  0  0  0  0  0  0  0  0
   29.6279   44.3271   47.1700 Cl  0  0  0  0  0  0  0  0  0  0  0  0
   31.1694   46.5363   47.0500 C   0  0  0  0  0  0  0  0  0  0  0  0
   31.3634   47.8964   46.8830 C   0  0  0  0  0  0  0  0  0  0  0  0
   30.2884   48.7254   46.6342 C   0  0  0  0  0  0  0  0  0  0  0  0
  1  2  2  3
  2  3  1  0
  2  4  1  0
  7  4  1  6
  4  5  1  0
  4  8  1  1
  5  6  1  1
  6  7  1  1
  8 14  1  0
  8  9  2  0
  9 10  1  0
 10 11  1  0
 10 12  2  0
 12 13  1  0
 13 14  2  0
M  CHG  1   1   1
M  END
$$$$
