
     RDKit          3D

 14 15  0  0  0  0  0  0  0  0999 V2000
   35.7700   23.3074   52.3519 N   0  0  0  0  0  4  0  0  0  0  0  0
   34.9861   22.9584   51.4051 C   0  0  0  0  0  0  0  0  0  0  0  0
   33.7685   22.2618   51.7240 N   0  0  0  0  0  0  0  0  0  0  0  0
   35.2988   23.2383   49.9894 C   0  0  2  0  0  0  0  0  0  0  0  0
   35.4402   22.0235   49.0918 C   0  0  0  0  0  0  0  0  0  0  0  0
   36.7027   22.6678   48.4922 C   0  0  0  0  0  0  0  0  0  0  0  0
   36.7887   23.4656   49.8014 C   0  0  0  0  0  0  0  0  0  0  0  0
   34.4204   24.2908   49.4436 C   0  0  0  0  0  0  0  0  0  0  0  0
   34.6395   25.6301   49.5803 C   0  0  0  0  0  0  0  0  0  0  0  0
   33.7837   26.5826   49.0532 C   0  0  0  0  0  0  0  0  0  0  0  0
   34.1144   28.2835   49.2594 Cl  0  0  0  0  0  0  0  0  0  0  0  0
   32.6630   26.1961   48.3607 C   0  0  0  0  0  0  0  0  0  0  0  0
   32.4143   24.8436   48.2054 C   0  0  0  0  0  0  0  0  0  0  0  0
   33.2816   23.9125   48.7399 C   0  0  0  0  0  0  0  0  0  0  0  0
  1  2  2  3
  2  3  1  0
  2  4  1  0
  7  4  1  6
  4  5  1  0
  4  8  1  6
  5  6  1  1
  6  7  1  1
  8 14  1  0
  8  9  2  0
  9 10  1  0
 10 11  1  0
 10 12  2  0
 12 13  1  0
 13 14  2  0
M  CHG  1   1   1
M  END
$$$$
