
     RDKit          3D

 14 15  0  0  0  0  0  0  0  0999 V2000
   25.0379   42.2996   70.2223 N   0  0  0  0  0  4  0  0  0  0  0  0
   26.2945   42.2957   70.4538 C   0  0  0  0  0  0  0  0  0  0  0  0
   26.7577   42.4136   71.8107 N   0  0  0  0  0  0  0  0  0  0  0  0
   27.2882   42.1857   69.3671 C   0  0  2  0  0  0  0  0  0  0  0  0
   28.7353   42.3932   69.7722 C   0  0  0  0  0  0  0  0  0  0  0  0
   28.9094   43.2858   68.5306 C   0  0  0  0  0  0  0  0  0  0  0  0
   27.3888   43.4897   68.5949 C   0  0  0  0  0  0  0  0  0  0  0  0
   27.0591   40.9783   68.5503 C   0  0  0  0  0  0  0  0  0  0  0  0
   26.6350   40.9894   67.2541 C   0  0  0  0  0  0  0  0  0  0  0  0
   26.4298   39.8286   66.5275 C   0  0  0  0  0  0  0  0  0  0  0  0
   25.8859   39.9033   64.8711 Cl  0  0  0  0  0  0  0  0  0  0  0  0
   26.6531   38.6036   67.1057 C   0  0  0  0  0  0  0  0  0  0  0  0
   27.0842   38.5606   68.4201 C   0  0  0  0  0  0  0  0  0  0  0  0
   27.2818   39.7309   69.1244 C   0  0  0  0  0  0  0  0  0  0  0  0
  1  2  2  3
  2  3  1  0
  2  4  1  0
  7  4  1  6
  4  5  1  0
  4  8  1  6
  5  6  1  1
  6  7  1  1
  8 14  1  0
  8  9  2  0
  9 10  1  0
 10 11  1  0
 10 12  2  0
 12 13  1  0
 13 14  2  0
M  CHG  1   1   1
M  END
$$$$
