
     RDKit          3D

 14 15  0  0  0  0  0  0  0  0999 V2000
   27.4043   39.8112   49.7069 N   0  0  0  0  0  4  0  0  0  0  0  0
   28.6466   40.0333   49.5070 C   0  0  0  0  0  0  0  0  0  0  0  0
   29.0692   41.3520   49.1172 N   0  0  0  0  0  0  0  0  0  0  0  0
   29.6628   38.9718   49.6526 C   0  0  2  0  0  0  0  0  0  0  0  0
   30.8097   39.0152   48.6606 C   0  0  0  0  0  0  0  0  0  0  0  0
   30.6502   37.4957   48.4761 C   0  0  0  0  0  0  0  0  0  0  0  0
   29.2091   37.6942   48.9681 C   0  0  0  0  0  0  0  0  0  0  0  0
   30.0878   38.8247   51.0580 C   0  0  0  0  0  0  0  0  0  0  0  0
   29.3796   38.1600   52.0155 C   0  0  0  0  0  0  0  0  0  0  0  0
   29.8173   38.0511   53.3248 C   0  0  0  0  0  0  0  0  0  0  0  0
   28.8690   37.1882   54.5083 Cl  0  0  0  0  0  0  0  0  0  0  0  0
   31.0060   38.6232   53.7052 C   0  0  0  0  0  0  0  0  0  0  0  0
   31.7469   39.3043   52.7552 C   0  0  0  0  0  0  0  0  0  0  0  0
   31.2902   39.3997   51.4563 C   0  0  0  0  0  0  0  0  0  0  0  0
  1  2  2  3
  2  3  1  0
  2  4  1  0
  7  4  1  6
  4  5  1  0
  4  8  1  1
  5  6  1  1
  6  7  1  1
  8 14  1  0
  8  9  2  0
  9 10  1  0
 10 11  1  0
 10 12  2  0
 12 13  1  0
 13 14  2  0
M  CHG  1   1   1
M  END
$$$$
