
     RDKit          3D

 14 15  0  0  0  0  0  0  0  0999 V2000
   13.6606   42.9254   57.7199 N   0  0  0  0  0  4  0  0  0  0  0  0
   13.5855   41.7287   57.2785 C   0  0  0  0  0  0  0  0  0  0  0  0
   13.0308   40.7039   58.1221 N   0  0  0  0  0  0  0  0  0  0  0  0
   14.0630   41.3626   55.9300 C   0  0  2  0  0  0  0  0  0  0  0  0
   14.3362   42.5209   54.9892 C   0  0  0  0  0  0  0  0  0  0  0  0
   13.6015   41.7402   53.8849 C   0  0  0  0  0  0  0  0  0  0  0  0
   12.8984   40.9934   55.0278 C   0  0  0  0  0  0  0  0  0  0  0  0
   15.1547   40.3720   55.9978 C   0  0  0  0  0  0  0  0  0  0  0  0
   16.3873   40.6135   56.5292 C   0  0  0  0  0  0  0  0  0  0  0  0
   17.3833   39.6522   56.5676 C   0  0  0  0  0  0  0  0  0  0  0  0
   18.9428   40.0177   57.2600 Cl  0  0  0  0  0  0  0  0  0  0  0  0
   17.1523   38.3980   56.0593 C   0  0  0  0  0  0  0  0  0  0  0  0
   15.9106   38.1232   55.5134 C   0  0  0  0  0  0  0  0  0  0  0  0
   14.9334   39.0975   55.4862 C   0  0  0  0  0  0  0  0  0  0  0  0
  1  2  2  3
  2  3  1  0
  2  4  1  0
  7  4  1  6
  4  5  1  0
  4  8  1  1
  5  6  1  1
  6  7  1  1
  8 14  1  0
  8  9  2  0
  9 10  1  0
 10 11  1  0
 10 12  2  0
 12 13  1  0
 13 14  2  0
M  CHG  1   1   1
M  END
$$$$
