
     RDKit          3D

 14 15  0  0  0  0  0  0  0  0999 V2000
   17.9113   41.7006   62.2363 N   0  0  0  0  0  4  0  0  0  0  0  0
   17.9615   40.7886   61.3428 C   0  0  0  0  0  0  0  0  0  0  0  0
   19.1454   39.9787   61.2334 N   0  0  0  0  0  0  0  0  0  0  0  0
   16.8431   40.5481   60.4090 C   0  0  2  0  0  0  0  0  0  0  0  0
   15.6459   41.4672   60.5620 C   0  0  0  0  0  0  0  0  0  0  0  0
   14.7369   40.2310   60.4442 C   0  0  0  0  0  0  0  0  0  0  0  0
   15.9560   39.4216   60.9096 C   0  0  0  0  0  0  0  0  0  0  0  0
   17.3232   40.4113   59.0205 C   0  0  0  0  0  0  0  0  0  0  0  0
   18.3372   39.5872   58.6295 C   0  0  0  0  0  0  0  0  0  0  0  0
   18.7565   39.4948   57.3130 C   0  0  0  0  0  0  0  0  0  0  0  0
   20.0602   38.4227   56.8704 Cl  0  0  0  0  0  0  0  0  0  0  0  0
   18.1481   40.2486   56.3401 C   0  0  0  0  0  0  0  0  0  0  0  0
   17.1157   41.0942   56.7067 C   0  0  0  0  0  0  0  0  0  0  0  0
   16.7151   41.1695   58.0253 C   0  0  0  0  0  0  0  0  0  0  0  0
  1  2  2  3
  2  3  1  0
  2  4  1  0
  7  4  1  6
  4  5  1  0
  4  8  1  6
  5  6  1  1
  6  7  1  1
  8 14  1  0
  8  9  2  0
  9 10  1  0
 10 11  1  0
 10 12  2  0
 12 13  1  0
 13 14  2  0
M  CHG  1   1   1
M  END
$$$$
