
     RDKit          3D

 25 27  0  0  0  0  0  0  0  0999 V2000
    8.5636  -17.9964    4.7818 O   0  0  0  0  0  0  0  0  0  0  0  0
    9.1854  -17.4293    5.6911 C   0  0  0  0  0  0  0  0  0  0  0  0
   10.6766  -17.2672    5.5652 C   0  0  0  0  0  0  0  0  0  0  0  0
    8.4751  -16.9546    6.8132 N   0  0  0  0  0  0  0  0  0  0  0  0
    7.0636  -17.1070    7.0528 C   0  0  0  0  0  0  0  0  0  0  0  0
    6.6934  -16.2160    8.1875 C   0  0  0  0  0  0  0  0  0  0  0  0
    7.4878  -15.1958    8.6515 C   0  0  0  0  0  0  0  0  0  0  0  0
    7.0922  -14.4007    9.7248 C   0  0  0  0  0  0  0  0  0  0  0  0
    5.8913  -14.6055   10.3614 C   0  0  0  0  0  0  0  0  0  0  0  0
    5.4194  -13.8107   11.4911 C   0  0  0  0  0  0  0  0  0  0  0  0
    5.5573  -14.1826   12.7866 C   0  0  0  0  0  0  0  0  0  0  0  0
    5.1056  -13.4221   13.8695 C   0  0  0  0  0  0  0  0  0  0  0  0
    5.3048  -13.9020   15.2393 C   0  0  1  0  0  0  0  0  0  0  0  0
    4.0398  -14.1944   15.9547 C   0  0  0  0  0  0  0  0  0  0  0  0
    3.1094  -15.1400   15.3847 N   0  0  0  0  0  0  0  0  0  0  0  0
    3.6876  -13.6690   17.0529 N   0  0  0  0  0  4  0  0  0  0  0  0
    6.2224  -15.1107   15.3332 C   0  0  0  0  0  0  0  0  0  0  0  0
    6.6915  -14.5094   16.6882 C   0  0  0  0  0  0  0  0  0  0  0  0
    6.3255  -13.1571   16.0450 C   0  0  0  0  0  0  0  0  0  0  0  0
    4.4903  -12.2345   13.5797 C   0  0  0  0  0  0  0  0  0  0  0  0
    4.3322  -11.8218   12.2497 C   0  0  0  0  0  0  0  0  0  0  0  0
    3.5300  -10.2786   11.9179 Cl  0  0  0  0  0  0  0  0  0  0  0  0
    4.7962  -12.6106   11.2282 C   0  0  0  0  0  0  0  0  0  0  0  0
    5.1077  -15.6295    9.8857 C   0  0  0  0  0  0  0  0  0  0  0  0
    5.4822  -16.4248    8.8273 C   0  0  0  0  0  0  0  0  0  0  0  0
  1  2  2  0
  3  2  1  1
  2  4  1  0
  5  4  1  6
  5  6  1  0
  6 25  2  0
  6  7  1  0
  7  8  2  0
  8  9  1  0
  9 10  1  0
  9 24  2  0
 10 23  1  0
 10 11  2  0
 11 12  1  0
 13 12  1  6
 12 20  2  0
 13 19  1  0
 13 14  1  0
 17 13  1  6
 14 15  1  0
 14 16  2  3
 18 17  1  6
 19 18  1  1
 20 21  1  0
 21 22  1  0
 21 23  2  0
 24 25  1  0
M  CHG  1  16   1
M  END
$$$$
