
     RDKit          3D

 25 27  0  0  0  0  0  0  0  0999 V2000
    4.5081  -18.6998    4.3221 O   0  0  0  0  0  0  0  0  0  0  0  0
    5.5812  -18.3121    4.8050 C   0  0  0  0  0  0  0  0  0  0  0  0
    6.8674  -18.6796    4.1148 C   0  0  0  0  0  0  0  0  0  0  0  0
    5.5615  -17.5395    5.9846 N   0  0  0  0  0  0  0  0  0  0  0  0
    4.3978  -17.2106    6.7660 C   0  0  0  0  0  0  0  0  0  0  0  0
    4.8350  -16.3415    7.8940 C   0  0  0  0  0  0  0  0  0  0  0  0
    6.0984  -15.8151    8.0106 C   0  0  0  0  0  0  0  0  0  0  0  0
    6.4527  -15.0157    9.0951 C   0  0  0  0  0  0  0  0  0  0  0  0
    5.5519  -14.7221   10.0909 C   0  0  0  0  0  0  0  0  0  0  0  0
    5.8595  -13.8940   11.2529 C   0  0  0  0  0  0  0  0  0  0  0  0
    5.7152  -14.3076   12.5350 C   0  0  0  0  0  0  0  0  0  0  0  0
    6.0095  -13.5153   13.6488 C   0  0  0  0  0  0  0  0  0  0  0  0
    5.8283  -14.0503   15.0005 C   0  0  1  0  0  0  0  0  0  0  0  0
    6.9219  -14.9531   15.4322 C   0  0  0  0  0  0  0  0  0  0  0  0
    7.0081  -16.2781   14.8649 N   0  0  0  0  0  0  0  0  0  0  0  0
    7.8127  -14.6601   16.2847 N   0  0  0  0  0  4  0  0  0  0  0  0
    5.6207  -12.9767   16.0571 C   0  0  0  0  0  0  0  0  0  0  0  0
    4.6822  -14.0019   16.7543 C   0  0  0  0  0  0  0  0  0  0  0  0
    4.4477  -14.5337   15.3265 C   0  0  0  0  0  0  0  0  0  0  0  0
    6.4695  -12.2495   13.4055 C   0  0  0  0  0  0  0  0  0  0  0  0
    6.6295  -11.7919   12.0904 C   0  0  0  0  0  0  0  0  0  0  0  0
    7.2269  -10.1474   11.8191 Cl  0  0  0  0  0  0  0  0  0  0  0  0
    6.3243  -12.6153   11.0370 C   0  0  0  0  0  0  0  0  0  0  0  0
    4.2920  -15.2558    9.9601 C   0  0  0  0  0  0  0  0  0  0  0  0
    3.9247  -16.0472    8.8963 C   0  0  0  0  0  0  0  0  0  0  0  0
  1  2  2  0
  3  2  1  1
  2  4  1  0
  5  4  1  6
  5  6  1  0
  6 25  2  0
  6  7  1  0
  7  8  2  0
  8  9  1  0
  9 10  1  0
  9 24  2  0
 10 23  1  0
 10 11  2  0
 11 12  1  0
 13 12  1  6
 12 20  2  0
 13 19  1  0
 13 14  1  0
 17 13  1  6
 14 15  1  0
 14 16  2  3
 18 17  1  6
 19 18  1  1
 20 21  1  0
 21 22  1  0
 21 23  2  0
 24 25  1  0
M  CHG  1  16   1
M  END
$$$$
