
     RDKit          3D

 25 27  0  0  0  0  0  0  0  0999 V2000
    9.2836  -13.9343   17.6395 O   0  0  0  0  0  0  0  0  0  0  0  0
    9.4502  -13.3233   16.5746 C   0  0  0  0  0  0  0  0  0  0  0  0
   10.7196  -12.5398   16.3733 C   0  0  0  0  0  0  0  0  0  0  0  0
    8.4452  -13.3827   15.5870 N   0  0  0  0  0  0  0  0  0  0  0  0
    7.1778  -14.0558   15.7032 C   0  0  0  0  0  0  0  0  0  0  0  0
    6.5926  -14.1680   14.3380 C   0  0  0  0  0  0  0  0  0  0  0  0
    6.7319  -13.2100   13.3635 C   0  0  0  0  0  0  0  0  0  0  0  0
    6.1526  -13.3663   12.1062 C   0  0  0  0  0  0  0  0  0  0  0  0
    5.4191  -14.4853   11.7915 C   0  0  0  0  0  0  0  0  0  0  0  0
    4.7853  -14.7090   10.4958 C   0  0  0  0  0  0  0  0  0  0  0  0
    5.1276  -15.7107    9.6501 C   0  0  0  0  0  0  0  0  0  0  0  0
    4.5212  -15.9260    8.4088 C   0  0  0  0  0  0  0  0  0  0  0  0
    4.9534  -17.0410    7.5625 C   0  0  1  0  0  0  0  0  0  0  0  0
    5.3863  -16.6236    6.2076 C   0  0  0  0  0  0  0  0  0  0  0  0
    4.3968  -16.1669    5.2604 N   0  0  0  0  0  0  0  0  0  0  0  0
    6.5830  -16.6367    5.7906 N   0  0  0  0  0  4  0  0  0  0  0  0
    6.0406  -17.8971    8.1925 C   0  0  0  0  0  0  0  0  0  0  0  0
    5.3672  -19.0928    7.4612 C   0  0  0  0  0  0  0  0  0  0  0  0
    4.0787  -18.2574    7.5966 C   0  0  0  0  0  0  0  0  0  0  0  0
    3.5245  -15.0606    8.0469 C   0  0  0  0  0  0  0  0  0  0  0  0
    3.1474  -14.0141    8.8996 C   0  0  0  0  0  0  0  0  0  0  0  0
    1.8537  -12.9164    8.3934 Cl  0  0  0  0  0  0  0  0  0  0  0  0
    3.7789  -13.8526   10.1063 C   0  0  0  0  0  0  0  0  0  0  0  0
    5.2889  -15.4348   12.7767 C   0  0  0  0  0  0  0  0  0  0  0  0
    5.8539  -15.2973   14.0236 C   0  0  0  0  0  0  0  0  0  0  0  0
  1  2  2  0
  3  2  1  1
  2  4  1  0
  5  4  1  6
  5  6  1  0
  6 25  2  0
  6  7  1  0
  7  8  2  0
  8  9  1  0
  9 10  1  0
  9 24  2  0
 10 23  1  0
 10 11  2  0
 11 12  1  0
 13 12  1  1
 12 20  2  0
 13 19  1  0
 13 14  1  0
 17 13  1  6
 14 15  1  0
 14 16  2  3
 18 17  1  6
 19 18  1  1
 20 21  1  0
 21 22  1  0
 21 23  2  0
 24 25  1  0
M  CHG  1  16   1
M  END
$$$$
