
     RDKit          3D

 25 27  0  0  0  0  0  0  0  0999 V2000
   31.5695   -8.7867  -20.7934 O   0  0  0  0  0  0  0  0  0  0  0  0
   30.4159   -9.1357  -21.0805 C   0  0  0  0  0  0  0  0  0  0  0  0
   29.8971   -8.8709  -22.4685 C   0  0  0  0  0  0  0  0  0  0  0  0
   29.6279   -9.7694  -20.0974 N   0  0  0  0  0  0  0  0  0  0  0  0
   30.0003   -9.9957  -18.7252 C   0  0  0  0  0  0  0  0  0  0  0  0
   28.9042  -10.7666  -18.0749 C   0  0  0  0  0  0  0  0  0  0  0  0
   29.0465  -12.0465  -17.5970 C   0  0  0  0  0  0  0  0  0  0  0  0
   27.9808  -12.7218  -17.0064 C   0  0  0  0  0  0  0  0  0  0  0  0
   26.7451  -12.1338  -16.8783 C   0  0  0  0  0  0  0  0  0  0  0  0
   25.5885  -12.7863  -16.2722 C   0  0  0  0  0  0  0  0  0  0  0  0
   24.3390  -12.7466  -16.7945 C   0  0  0  0  0  0  0  0  0  0  0  0
   23.2303  -13.3712  -16.2148 C   0  0  0  0  0  0  0  0  0  0  0  0
   21.9161  -13.2796  -16.8555 C   0  0  1  0  0  0  0  0  0  0  0  0
   20.7853  -13.3299  -15.8983 C   0  0  0  0  0  0  0  0  0  0  0  0
   20.3342  -14.6101  -15.4060 N   0  0  0  0  0  0  0  0  0  0  0  0
   20.1555  -12.3197  -15.4636 N   0  0  0  0  0  4  0  0  0  0  0  0
   21.7590  -12.0604  -17.7504 C   0  0  0  0  0  0  0  0  0  0  0  0
   20.8670  -12.9691  -18.6428 C   0  0  0  0  0  0  0  0  0  0  0  0
   21.7357  -14.1147  -18.0867 C   0  0  0  0  0  0  0  0  0  0  0  0
   23.4438  -14.0580  -15.0505 C   0  0  0  0  0  0  0  0  0  0  0  0
   24.7248  -14.1176  -14.4849 C   0  0  0  0  0  0  0  0  0  0  0  0
   24.9581  -15.0164  -12.9773 Cl  0  0  0  0  0  0  0  0  0  0  0  0
   25.7748  -13.4847  -15.0995 C   0  0  0  0  0  0  0  0  0  0  0  0
   26.6184  -10.8531  -17.3608 C   0  0  0  0  0  0  0  0  0  0  0  0
   27.6596  -10.1711  -17.9471 C   0  0  0  0  0  0  0  0  0  0  0  0
  1  2  2  0
  3  2  1  1
  2  4  1  0
  5  4  1  6
  5  6  1  0
  6 25  2  0
  6  7  1  0
  7  8  2  0
  8  9  1  0
  9 10  1  0
  9 24  2  0
 10 23  1  0
 10 11  2  0
 11 12  1  0
 13 12  1  1
 12 20  2  0
 13 19  1  0
 13 14  1  0
 17 13  1  6
 14 15  1  0
 14 16  2  3
 18 17  1  6
 19 18  1  1
 20 21  1  0
 21 22  1  0
 21 23  2  0
 24 25  1  0
M  CHG  1  16   1
M  END
$$$$
