
     RDKit          3D

 25 27  0  0  0  0  0  0  0  0999 V2000
   11.3964   -7.7881    2.8883 O   0  0  0  0  0  0  0  0  0  0  0  0
   11.0465   -8.9583    2.6806 C   0  0  0  0  0  0  0  0  0  0  0  0
   10.5491   -9.3396    1.3121 C   0  0  0  0  0  0  0  0  0  0  0  0
   11.1262   -9.8935    3.7331 N   0  0  0  0  0  0  0  0  0  0  0  0
   11.5837   -9.6292    5.0725 C   0  0  0  0  0  0  0  0  0  0  0  0
   10.8546  -10.5447    5.9939 C   0  0  0  0  0  0  0  0  0  0  0  0
   10.6968  -11.8908    5.7703 C   0  0  0  0  0  0  0  0  0  0  0  0
    9.9950  -12.6961    6.6646 C   0  0  0  0  0  0  0  0  0  0  0  0
    9.4333  -12.1755    7.8059 C   0  0  0  0  0  0  0  0  0  0  0  0
    8.6852  -12.9630    8.7810 C   0  0  0  0  0  0  0  0  0  0  0  0
    9.2457  -13.5582    9.8613 C   0  0  0  0  0  0  0  0  0  0  0  0
    8.5301  -14.3128   10.7960 C   0  0  0  0  0  0  0  0  0  0  0  0
    9.2208  -14.9150   11.9390 C   0  0  1  0  0  0  0  0  0  0  0  0
    9.7473  -16.2733   11.6648 C   0  0  0  0  0  0  0  0  0  0  0  0
    8.8826  -17.2551   11.0539 N   0  0  0  0  0  0  0  0  0  0  0  0
   10.9229  -16.6647   11.9312 N   0  0  0  0  0  4  0  0  0  0  0  0
   10.3386  -14.0498   12.4992 C   0  0  0  0  0  0  0  0  0  0  0  0
    9.9420  -14.6309   13.8859 C   0  0  0  0  0  0  0  0  0  0  0  0
    8.5375  -14.7607   13.2638 C   0  0  0  0  0  0  0  0  0  0  0  0
    7.1840  -14.4446   10.5868 C   0  0  0  0  0  0  0  0  0  0  0  0
    6.5744  -13.8410    9.4785 C   0  0  0  0  0  0  0  0  0  0  0  0
    4.8303  -14.0364    9.2442 Cl  0  0  0  0  0  0  0  0  0  0  0  0
    7.3284  -13.1120    8.5948 C   0  0  0  0  0  0  0  0  0  0  0  0
    9.5999  -10.8274    8.0158 C   0  0  0  0  0  0  0  0  0  0  0  0
   10.2895  -10.0170    7.1437 C   0  0  0  0  0  0  0  0  0  0  0  0
  1  2  2  0
  3  2  1  1
  2  4  1  0
  5  4  1  6
  5  6  1  0
  6 25  2  0
  6  7  1  0
  7  8  2  0
  8  9  1  0
  9 10  1  0
  9 24  2  0
 10 23  1  0
 10 11  2  0
 11 12  1  0
 13 12  1  6
 12 20  2  0
 13 19  1  0
 13 14  1  0
 17 13  1  6
 14 15  1  0
 14 16  2  3
 18 17  1  6
 19 18  1  1
 20 21  1  0
 21 22  1  0
 21 23  2  0
 24 25  1  0
M  CHG  1  16   1
M  END
$$$$
