
     RDKit          3D

 25 27  0  0  0  0  0  0  0  0999 V2000
    2.6203  -12.2578    4.2047 O   0  0  0  0  0  0  0  0  0  0  0  0
    2.8616  -11.6134    5.2350 C   0  0  0  0  0  0  0  0  0  0  0  0
    2.7329  -10.1140    5.2053 C   0  0  0  0  0  0  0  0  0  0  0  0
    3.2484  -12.3064    6.4008 N   0  0  0  0  0  0  0  0  0  0  0  0
    3.4155  -13.7308    6.5270 C   0  0  0  0  0  0  0  0  0  0  0  0
    3.8608  -14.0176    7.9192 C   0  0  0  0  0  0  0  0  0  0  0  0
    4.1813  -15.2720    8.3782 C   0  0  0  0  0  0  0  0  0  0  0  0
    4.5827  -15.4804    9.6958 C   0  0  0  0  0  0  0  0  0  0  0  0
    4.6742  -14.4390   10.5882 C   0  0  0  0  0  0  0  0  0  0  0  0
    5.0857  -14.5898   11.9806 C   0  0  0  0  0  0  0  0  0  0  0  0
    6.3346  -14.3224   12.4326 C   0  0  0  0  0  0  0  0  0  0  0  0
    6.7298  -14.4666   13.7660 C   0  0  0  0  0  0  0  0  0  0  0  0
    8.1026  -14.1468   14.1650 C   0  0  1  0  0  0  0  0  0  0  0  0
    8.2004  -12.9718   15.0633 C   0  0  0  0  0  0  0  0  0  0  0  0
    8.3564  -13.1806   16.4835 N   0  0  0  0  0  0  0  0  0  0  0  0
    8.1526  -11.7627   14.6865 N   0  0  0  0  0  4  0  0  0  0  0  0
    8.8425  -15.3178   14.7921 C   0  0  0  0  0  0  0  0  0  0  0  0
   10.1136  -14.7340   14.1130 C   0  0  0  0  0  0  0  0  0  0  0  0
    9.1222  -14.1861   13.0673 C   0  0  0  0  0  0  0  0  0  0  0  0
    5.7816  -14.9054   14.6500 C   0  0  0  0  0  0  0  0  0  0  0  0
    4.4807  -15.1907   14.2135 C   0  0  0  0  0  0  0  0  0  0  0  0
    3.2840  -15.7567   15.3893 Cl  0  0  0  0  0  0  0  0  0  0  0  0
    4.1511  -15.0302   12.8919 C   0  0  0  0  0  0  0  0  0  0  0  0
    4.3507  -13.1901   10.1141 C   0  0  0  0  0  0  0  0  0  0  0  0
    3.9523  -12.9657    8.8165 C   0  0  0  0  0  0  0  0  0  0  0  0
  1  2  2  0
  3  2  1  1
  2  4  1  0
  5  4  1  6
  5  6  1  0
  6 25  2  0
  6  7  1  0
  7  8  2  0
  8  9  1  0
  9 10  1  0
  9 24  2  0
 10 23  1  0
 10 11  2  0
 11 12  1  0
 13 12  1  6
 12 20  2  0
 13 19  1  0
 13 14  1  0
 17 13  1  6
 14 15  1  0
 14 16  2  3
 18 17  1  6
 19 18  1  1
 20 21  1  0
 21 22  1  0
 21 23  2  0
 24 25  1  0
M  CHG  1  16   1
M  END
$$$$
