
     RDKit          3D

 25 27  0  0  0  0  0  0  0  0999 V2000
    9.6720  -14.4816   15.9408 O   0  0  0  0  0  0  0  0  0  0  0  0
    9.5153  -14.1247   14.7647 C   0  0  0  0  0  0  0  0  0  0  0  0
   10.4467  -13.0946   14.1841 C   0  0  0  0  0  0  0  0  0  0  0  0
    8.4700  -14.6957   14.0097 N   0  0  0  0  0  0  0  0  0  0  0  0
    7.5221  -15.6747   14.4745 C   0  0  0  0  0  0  0  0  0  0  0  0
    6.6883  -16.0917   13.3128 C   0  0  0  0  0  0  0  0  0  0  0  0
    5.3158  -16.0369   13.2957 C   0  0  0  0  0  0  0  0  0  0  0  0
    4.5883  -16.4507   12.1821 C   0  0  0  0  0  0  0  0  0  0  0  0
    5.2152  -16.9297   11.0566 C   0  0  0  0  0  0  0  0  0  0  0  0
    4.5126  -17.3804    9.8591 C   0  0  0  0  0  0  0  0  0  0  0  0
    4.7811  -16.9285    8.6104 C   0  0  0  0  0  0  0  0  0  0  0  0
    4.1086  -17.3595    7.4627 C   0  0  0  0  0  0  0  0  0  0  0  0
    4.4721  -16.8187    6.1506 C   0  0  1  0  0  0  0  0  0  0  0  0
    3.6619  -15.6443    5.7485 C   0  0  0  0  0  0  0  0  0  0  0  0
    3.6562  -14.4701    6.5887 N   0  0  0  0  0  0  0  0  0  0  0  0
    2.9473  -15.5775    4.7040 N   0  0  0  0  0  4  0  0  0  0  0  0
    5.9477  -16.4753    6.0215 C   0  0  0  0  0  0  0  0  0  0  0  0
    5.8047  -16.9121    4.5360 C   0  0  0  0  0  0  0  0  0  0  0  0
    4.6894  -17.8332    5.0692 C   0  0  0  0  0  0  0  0  0  0  0  0
    3.1240  -18.2943    7.6350 C   0  0  0  0  0  0  0  0  0  0  0  0
    2.8224  -18.7815    8.9140 C   0  0  0  0  0  0  0  0  0  0  0  0
    1.5409  -19.9901    9.0935 Cl  0  0  0  0  0  0  0  0  0  0  0  0
    3.5165  -18.3211   10.0035 C   0  0  0  0  0  0  0  0  0  0  0  0
    6.5884  -16.9782   11.0887 C   0  0  0  0  0  0  0  0  0  0  0  0
    7.3231  -16.5740   12.1795 C   0  0  0  0  0  0  0  0  0  0  0  0
  1  2  2  0
  3  2  1  1
  2  4  1  0
  5  4  1  6
  5  6  1  0
  6 25  2  0
  6  7  1  0
  7  8  2  0
  8  9  1  0
  9 10  1  0
  9 24  2  0
 10 23  1  0
 10 11  2  0
 11 12  1  0
 13 12  1  1
 12 20  2  0
 13 19  1  0
 13 14  1  0
 17 13  1  6
 14 15  1  0
 14 16  2  3
 18 17  1  6
 19 18  1  1
 20 21  1  0
 21 22  1  0
 21 23  2  0
 24 25  1  0
M  CHG  1  16   1
M  END
$$$$
