
     RDKit          3D

 25 27  0  0  0  0  0  0  0  0999 V2000
    9.4884  -16.7886   19.4939 O   0  0  0  0  0  0  0  0  0  0  0  0
    9.9949  -16.0521   18.6360 C   0  0  0  0  0  0  0  0  0  0  0  0
   11.4338  -15.6368   18.7878 C   0  0  0  0  0  0  0  0  0  0  0  0
    9.2066  -15.6279   17.5463 N   0  0  0  0  0  0  0  0  0  0  0  0
    7.8065  -15.9015   17.3524 C   0  0  0  0  0  0  0  0  0  0  0  0
    7.4297  -15.4186   15.9947 C   0  0  0  0  0  0  0  0  0  0  0  0
    7.9540  -15.9227   14.8293 C   0  0  0  0  0  0  0  0  0  0  0  0
    7.5699  -15.4233   13.5868 C   0  0  0  0  0  0  0  0  0  0  0  0
    6.6511  -14.4068   13.4782 C   0  0  0  0  0  0  0  0  0  0  0  0
    6.2081  -13.8379   12.2090 C   0  0  0  0  0  0  0  0  0  0  0  0
    5.5242  -14.5320   11.2677 C   0  0  0  0  0  0  0  0  0  0  0  0
    5.0994  -13.9881   10.0516 C   0  0  0  0  0  0  0  0  0  0  0  0
    4.3583  -14.8142    9.0953 C   0  0  1  0  0  0  0  0  0  0  0  0
    2.8885  -14.7612    9.2806 C   0  0  0  0  0  0  0  0  0  0  0  0
    2.2746  -15.5898   10.2911 N   0  0  0  0  0  0  0  0  0  0  0  0
    2.0967  -14.0357    8.6076 N   0  0  0  0  0  4  0  0  0  0  0  0
    4.6898  -14.5095    7.6430 C   0  0  0  0  0  0  0  0  0  0  0  0
    4.4671  -16.0275    7.3901 C   0  0  0  0  0  0  0  0  0  0  0  0
    4.9134  -16.1857    8.8572 C   0  0  0  0  0  0  0  0  0  0  0  0
    5.4041  -12.6741    9.8197 C   0  0  0  0  0  0  0  0  0  0  0  0
    6.1107  -11.9292   10.7736 C   0  0  0  0  0  0  0  0  0  0  0  0
    6.4851  -10.2322   10.4343 Cl  0  0  0  0  0  0  0  0  0  0  0  0
    6.5015  -12.5172   11.9494 C   0  0  0  0  0  0  0  0  0  0  0  0
    6.1355  -13.9132   14.6527 C   0  0  0  0  0  0  0  0  0  0  0  0
    6.5031  -14.3940   15.8883 C   0  0  0  0  0  0  0  0  0  0  0  0
  1  2  2  0
  3  2  1  1
  2  4  1  0
  5  4  1  6
  5  6  1  0
  6 25  2  0
  6  7  1  0
  7  8  2  0
  8  9  1  0
  9 10  1  0
  9 24  2  0
 10 23  1  0
 10 11  2  0
 11 12  1  0
 13 12  1  1
 12 20  2  0
 13 19  1  0
 13 14  1  0
 17 13  1  6
 14 15  1  0
 14 16  2  3
 18 17  1  6
 19 18  1  1
 20 21  1  0
 21 22  1  0
 21 23  2  0
 24 25  1  0
M  CHG  1  16   1
M  END
$$$$
