
     RDKit          3D

 25 27  0  0  0  0  0  0  0  0999 V2000
   10.1726   -7.1088    6.2021 O   0  0  0  0  0  0  0  0  0  0  0  0
   10.6735   -7.4474    7.2835 C   0  0  0  0  0  0  0  0  0  0  0  0
   12.1288   -7.1578    7.5365 C   0  0  0  0  0  0  0  0  0  0  0  0
    9.8635   -8.0924    8.2409 N   0  0  0  0  0  0  0  0  0  0  0  0
    8.4530   -8.3561    8.1222 C   0  0  0  0  0  0  0  0  0  0  0  0
    8.0663   -9.2813    9.2235 C   0  0  0  0  0  0  0  0  0  0  0  0
    8.9525   -9.7973   10.1375 C   0  0  0  0  0  0  0  0  0  0  0  0
    8.5332  -10.6674   11.1414 C   0  0  0  0  0  0  0  0  0  0  0  0
    7.2162  -11.0435   11.2569 C   0  0  0  0  0  0  0  0  0  0  0  0
    6.7128  -11.9517   12.2828 C   0  0  0  0  0  0  0  0  0  0  0  0
    6.8148  -13.3009   12.2135 C   0  0  0  0  0  0  0  0  0  0  0  0
    6.3329  -14.1718   13.1955 C   0  0  0  0  0  0  0  0  0  0  0  0
    6.4940  -15.6194   13.0381 C   0  0  1  0  0  0  0  0  0  0  0  0
    5.7168  -16.4126   14.0200 C   0  0  0  0  0  0  0  0  0  0  0  0
    4.2866  -16.5282   13.8595 N   0  0  0  0  0  0  0  0  0  0  0  0
    6.2088  -17.0127   15.0220 N   0  0  0  0  0  4  0  0  0  0  0  0
    6.1827  -16.1173   11.6356 C   0  0  0  0  0  0  0  0  0  0  0  0
    7.3042  -17.1664   11.8797 C   0  0  0  0  0  0  0  0  0  0  0  0
    7.8978  -16.0947   12.8154 C   0  0  0  0  0  0  0  0  0  0  0  0
    5.7253  -13.6051   14.2830 C   0  0  0  0  0  0  0  0  0  0  0  0
    5.6041  -12.2125   14.3842 C   0  0  0  0  0  0  0  0  0  0  0  0
    4.8108  -11.5197   15.8075 Cl  0  0  0  0  0  0  0  0  0  0  0  0
    6.0966  -11.4082   13.3886 C   0  0  0  0  0  0  0  0  0  0  0  0
    6.3417  -10.5188   10.3355 C   0  0  0  0  0  0  0  0  0  0  0  0
    6.7380   -9.6586    9.3376 C   0  0  0  0  0  0  0  0  0  0  0  0
  1  2  2  0
  3  2  1  1
  2  4  1  0
  5  4  1  6
  5  6  1  0
  6 25  2  0
  6  7  1  0
  7  8  2  0
  8  9  1  0
  9 10  1  0
  9 24  2  0
 10 23  1  0
 10 11  2  0
 11 12  1  0
 13 12  1  6
 12 20  2  0
 13 19  1  0
 13 14  1  0
 17 13  1  6
 14 15  1  0
 14 16  2  3
 18 17  1  6
 19 18  1  1
 20 21  1  0
 21 22  1  0
 21 23  2  0
 24 25  1  0
M  CHG  1  16   1
M  END
$$$$
