
     RDKit          3D

 25 27  0  0  0  0  0  0  0  0999 V2000
    9.5741  -18.0693   14.2682 O   0  0  0  0  0  0  0  0  0  0  0  0
    8.8402  -17.1808   14.7234 C   0  0  0  0  0  0  0  0  0  0  0  0
    8.4206  -17.2490   16.1674 C   0  0  0  0  0  0  0  0  0  0  0  0
    8.4229  -16.1357   13.8735 N   0  0  0  0  0  0  0  0  0  0  0  0
    8.7352  -16.0016   12.4744 C   0  0  0  0  0  0  0  0  0  0  0  0
    7.5942  -15.3071   11.8155 C   0  0  0  0  0  0  0  0  0  0  0  0
    6.4043  -15.0250   12.4412 C   0  0  0  0  0  0  0  0  0  0  0  0
    5.3676  -14.3809   11.7695 C   0  0  0  0  0  0  0  0  0  0  0  0
    5.4948  -14.0021   10.4544 C   0  0  0  0  0  0  0  0  0  0  0  0
    4.4478  -13.3269    9.6936 C   0  0  0  0  0  0  0  0  0  0  0  0
    4.6415  -12.1847    8.9912 C   0  0  0  0  0  0  0  0  0  0  0  0
    3.6393  -11.5371    8.2621 C   0  0  0  0  0  0  0  0  0  0  0  0
    3.9432  -10.3075    7.5260 C   0  0  1  0  0  0  0  0  0  0  0  0
    3.6849  -10.4092    6.0699 C   0  0  0  0  0  0  0  0  0  0  0  0
    2.4601   -9.8665    5.5311 N   0  0  0  0  0  0  0  0  0  0  0  0
    4.4636  -10.9510    5.2296 N   0  0  0  0  0  4  0  0  0  0  0  0
    3.2344   -9.0792    8.0744 C   0  0  0  0  0  0  0  0  0  0  0  0
    4.5097   -8.2941    7.6559 C   0  0  0  0  0  0  0  0  0  0  0  0
    5.2321   -9.6355    7.8909 C   0  0  0  0  0  0  0  0  0  0  0  0
    2.3962  -12.1094    8.2731 C   0  0  0  0  0  0  0  0  0  0  0  0
    2.1637  -13.2908    8.9903 C   0  0  0  0  0  0  0  0  0  0  0  0
    0.5407  -13.9983    8.9790 Cl  0  0  0  0  0  0  0  0  0  0  0  0
    3.1867  -13.8812    9.6874 C   0  0  0  0  0  0  0  0  0  0  0  0
    6.6910  -14.2908    9.8422 C   0  0  0  0  0  0  0  0  0  0  0  0
    7.7253  -14.9262   10.4897 C   0  0  0  0  0  0  0  0  0  0  0  0
  1  2  2  0
  3  2  1  1
  2  4  1  0
  5  4  1  6
  5  6  1  0
  6 25  2  0
  6  7  1  0
  7  8  2  0
  8  9  1  0
  9 10  1  0
  9 24  2  0
 10 23  1  0
 10 11  2  0
 11 12  1  0
 13 12  1  1
 12 20  2  0
 13 19  1  0
 13 14  1  0
 17 13  1  6
 14 15  1  0
 14 16  2  3
 18 17  1  6
 19 18  1  1
 20 21  1  0
 21 22  1  0
 21 23  2  0
 24 25  1  0
M  CHG  1  16   1
M  END
$$$$
