
     RDKit          3D

 25 27  0  0  0  0  0  0  0  0999 V2000
    3.8228   -8.1154    5.3149 O   0  0  0  0  0  0  0  0  0  0  0  0
    2.9635   -8.6889    5.9989 C   0  0  0  0  0  0  0  0  0  0  0  0
    1.5095   -8.4025    5.7350 C   0  0  0  0  0  0  0  0  0  0  0  0
    3.3766   -9.5906    7.0014 N   0  0  0  0  0  0  0  0  0  0  0  0
    4.7366   -9.9094    7.3502 C   0  0  0  0  0  0  0  0  0  0  0  0
    4.7053  -11.0032    8.3608 C   0  0  0  0  0  0  0  0  0  0  0  0
    3.5652  -11.6770    8.7256 C   0  0  0  0  0  0  0  0  0  0  0  0
    3.5960  -12.6860    9.6857 C   0  0  0  0  0  0  0  0  0  0  0  0
    4.7686  -13.0472   10.3053 C   0  0  0  0  0  0  0  0  0  0  0  0
    4.8687  -14.0927   11.3191 C   0  0  0  0  0  0  0  0  0  0  0  0
    5.3059  -13.8795   12.5836 C   0  0  0  0  0  0  0  0  0  0  0  0
    5.4022  -14.8801   13.5555 C   0  0  0  0  0  0  0  0  0  0  0  0
    5.8808  -14.5547   14.9013 C   0  0  1  0  0  0  0  0  0  0  0  0
    4.9880  -13.6305   15.6404 C   0  0  0  0  0  0  0  0  0  0  0  0
    4.0284  -14.1723   16.5734 N   0  0  0  0  0  0  0  0  0  0  0  0
    4.9871  -12.3689   15.5199 N   0  0  0  0  0  4  0  0  0  0  0  0
    6.1561  -15.7778   15.7615 C   0  0  0  0  0  0  0  0  0  0  0  0
    7.3111  -14.9424   16.3829 C   0  0  0  0  0  0  0  0  0  0  0  0
    7.3419  -14.2401   15.0110 C   0  0  0  0  0  0  0  0  0  0  0  0
    5.0270  -16.1430   13.1847 C   0  0  0  0  0  0  0  0  0  0  0  0
    4.5705  -16.3959   11.8840 C   0  0  0  0  0  0  0  0  0  0  0  0
    4.0953  -18.0440   11.4449 Cl  0  0  0  0  0  0  0  0  0  0  0  0
    4.4975  -15.3734   10.9730 C   0  0  0  0  0  0  0  0  0  0  0  0
    5.9006  -12.3643    9.9296 C   0  0  0  0  0  0  0  0  0  0  0  0
    5.8888  -11.3652    8.9837 C   0  0  0  0  0  0  0  0  0  0  0  0
  1  2  2  0
  3  2  1  1
  2  4  1  0
  5  4  1  6
  5  6  1  0
  6 25  2  0
  6  7  1  0
  7  8  2  0
  8  9  1  0
  9 10  1  0
  9 24  2  0
 10 23  1  0
 10 11  2  0
 11 12  1  0
 13 12  1  6
 12 20  2  0
 13 19  1  0
 13 14  1  0
 17 13  1  6
 14 15  1  0
 14 16  2  3
 18 17  1  6
 19 18  1  1
 20 21  1  0
 21 22  1  0
 21 23  2  0
 24 25  1  0
M  CHG  1  16   1
M  END
$$$$
