
     RDKit          3D

 25 27  0  0  0  0  0  0  0  0999 V2000
   32.2705   -7.2614  -21.8481 O   0  0  0  0  0  0  0  0  0  0  0  0
   31.2044   -7.8911  -21.8924 C   0  0  0  0  0  0  0  0  0  0  0  0
   30.4760   -8.0020  -23.2051 C   0  0  0  0  0  0  0  0  0  0  0  0
   30.7094   -8.4828  -20.7119 N   0  0  0  0  0  0  0  0  0  0  0  0
   31.3000   -8.3899  -19.4021 C   0  0  0  0  0  0  0  0  0  0  0  0
   30.4428   -9.1597  -18.4581 C   0  0  0  0  0  0  0  0  0  0  0  0
   29.5384   -8.5830  -17.5999 C   0  0  0  0  0  0  0  0  0  0  0  0
   28.7702   -9.3551  -16.7314 C   0  0  0  0  0  0  0  0  0  0  0  0
   28.8867  -10.7242  -16.6993 C   0  0  0  0  0  0  0  0  0  0  0  0
   28.1141  -11.5895  -15.8131 C   0  0  0  0  0  0  0  0  0  0  0  0
   27.7691  -11.2579  -14.5456 C   0  0  0  0  0  0  0  0  0  0  0  0
   27.0292  -12.0859  -13.6959 C   0  0  0  0  0  0  0  0  0  0  0  0
   26.6967  -11.6400  -12.3406 C   0  0  1  0  0  0  0  0  0  0  0  0
   25.6733  -10.5682  -12.3036 C   0  0  0  0  0  0  0  0  0  0  0  0
   24.7465  -10.4395  -13.4033 N   0  0  0  0  0  0  0  0  0  0  0  0
   25.5375   -9.7248  -11.3675 N   0  0  0  0  0  4  0  0  0  0  0  0
   26.2708  -12.7692  -11.4158 C   0  0  0  0  0  0  0  0  0  0  0  0
   26.9664  -11.9572  -10.2868 C   0  0  0  0  0  0  0  0  0  0  0  0
   27.8630  -11.4281  -11.4237 C   0  0  0  0  0  0  0  0  0  0  0  0
   26.6411  -13.2994  -14.1957 C   0  0  0  0  0  0  0  0  0  0  0  0
   26.9824  -13.6718  -15.5030 C   0  0  0  0  0  0  0  0  0  0  0  0
   26.4610  -15.2509  -16.1110 Cl  0  0  0  0  0  0  0  0  0  0  0  0
   27.7104  -12.8170  -16.2906 C   0  0  0  0  0  0  0  0  0  0  0  0
   29.7953  -11.2865  -17.5638 C   0  0  0  0  0  0  0  0  0  0  0  0
   30.5623  -10.5399  -18.4281 C   0  0  0  0  0  0  0  0  0  0  0  0
  1  2  2  0
  3  2  1  1
  2  4  1  0
  5  4  1  6
  5  6  1  0
  6 25  2  0
  6  7  1  0
  7  8  2  0
  8  9  1  0
  9 10  1  0
  9 24  2  0
 10 23  1  0
 10 11  2  0
 11 12  1  0
 13 12  1  6
 12 20  2  0
 13 19  1  0
 13 14  1  0
 17 13  1  6
 14 15  1  0
 14 16  2  3
 18 17  1  6
 19 18  1  1
 20 21  1  0
 21 22  1  0
 21 23  2  0
 24 25  1  0
M  CHG  1  16   1
M  END
$$$$
