
     RDKit          3D

 25 27  0  0  0  0  0  0  0  0999 V2000
   10.7874   -8.0805    7.7712 O   0  0  0  0  0  0  0  0  0  0  0  0
   11.7668   -8.1446    7.0151 C   0  0  0  0  0  0  0  0  0  0  0  0
   13.1014   -8.5488    7.5819 C   0  0  0  0  0  0  0  0  0  0  0  0
   11.5983   -7.8370    5.6492 N   0  0  0  0  0  0  0  0  0  0  0  0
   10.3826   -7.3866    5.0229 C   0  0  0  0  0  0  0  0  0  0  0  0
   10.6310   -7.2918    3.5573 C   0  0  0  0  0  0  0  0  0  0  0  0
   11.5389   -8.0706    2.8820 C   0  0  0  0  0  0  0  0  0  0  0  0
   11.7353   -7.9296    1.5101 C   0  0  0  0  0  0  0  0  0  0  0  0
   11.0280   -7.0058    0.7783 C   0  0  0  0  0  0  0  0  0  0  0  0
   11.1874   -6.8066   -0.6590 C   0  0  0  0  0  0  0  0  0  0  0  0
   12.0928   -5.9619   -1.2088 C   0  0  0  0  0  0  0  0  0  0  0  0
   12.2464   -5.7702   -2.5854 C   0  0  0  0  0  0  0  0  0  0  0  0
   13.2585   -4.8390   -3.0899 C   0  0  1  0  0  0  0  0  0  0  0  0
   12.7284   -3.4840   -3.3734 C   0  0  0  0  0  0  0  0  0  0  0  0
   11.7453   -3.3153   -4.4173 N   0  0  0  0  0  0  0  0  0  0  0  0
   13.0749   -2.4264   -2.7670 N   0  0  0  0  0  4  0  0  0  0  0  0
   14.4782   -4.7199   -2.1900 C   0  0  0  0  0  0  0  0  0  0  0  0
   15.2896   -4.5294   -3.5027 C   0  0  0  0  0  0  0  0  0  0  0  0
   14.1778   -5.3871   -4.1390 C   0  0  0  0  0  0  0  0  0  0  0  0
   11.4218   -6.4895   -3.4075 C   0  0  0  0  0  0  0  0  0  0  0  0
   10.4748   -7.3714   -2.8695 C   0  0  0  0  0  0  0  0  0  0  0  0
    9.4270   -8.2827   -3.9680 Cl  0  0  0  0  0  0  0  0  0  0  0  0
   10.3702   -7.5180   -1.5099 C   0  0  0  0  0  0  0  0  0  0  0  0
   10.1233   -6.2343    1.4678 C   0  0  0  0  0  0  0  0  0  0  0  0
    9.9165   -6.3597    2.8221 C   0  0  0  0  0  0  0  0  0  0  0  0
  1  2  2  0
  3  2  1  1
  2  4  1  0
  5  4  1  6
  5  6  1  0
  6 25  2  0
  6  7  1  0
  7  8  2  0
  8  9  1  0
  9 10  1  0
  9 24  2  0
 10 23  1  0
 10 11  2  0
 11 12  1  0
 13 12  1  1
 12 20  2  0
 13 19  1  0
 13 14  1  0
 17 13  1  6
 14 15  1  0
 14 16  2  3
 18 17  1  6
 19 18  1  1
 20 21  1  0
 21 22  1  0
 21 23  2  0
 24 25  1  0
M  CHG  1  16   1
M  END
$$$$
