
     RDKit          3D

 25 27  0  0  0  0  0  0  0  0999 V2000
   11.6743   -4.8329   -2.4935 O   0  0  0  0  0  0  0  0  0  0  0  0
   10.6956   -5.5925   -2.4762 C   0  0  0  0  0  0  0  0  0  0  0  0
    9.5052   -5.2691   -3.3388 C   0  0  0  0  0  0  0  0  0  0  0  0
   10.7300   -6.7342   -1.6492 N   0  0  0  0  0  0  0  0  0  0  0  0
   11.7934   -7.1015   -0.7507 C   0  0  0  0  0  0  0  0  0  0  0  0
   11.4459   -8.4168   -0.1440 C   0  0  0  0  0  0  0  0  0  0  0  0
   12.1925   -9.0321    0.8311 C   0  0  0  0  0  0  0  0  0  0  0  0
   11.8223  -10.2690    1.3543 C   0  0  0  0  0  0  0  0  0  0  0  0
   10.6953  -10.9220    0.9156 C   0  0  0  0  0  0  0  0  0  0  0  0
   10.2538  -12.2187    1.4201 C   0  0  0  0  0  0  0  0  0  0  0  0
    9.9962  -12.4736    2.7256 C   0  0  0  0  0  0  0  0  0  0  0  0
    9.5733  -13.7153    3.2100 C   0  0  0  0  0  0  0  0  0  0  0  0
    9.3121  -13.8967    4.6400 C   0  0  1  0  0  0  0  0  0  0  0  0
   10.5236  -14.2316    5.4259 C   0  0  0  0  0  0  0  0  0  0  0  0
   11.2259  -15.4625    5.1494 N   0  0  0  0  0  0  0  0  0  0  0  0
   11.0107  -13.5156    6.3512 N   0  0  0  0  0  4  0  0  0  0  0  0
    8.6098  -12.7126    5.2854 C   0  0  0  0  0  0  0  0  0  0  0  0
    7.9011  -13.7654    6.1838 C   0  0  0  0  0  0  0  0  0  0  0  0
    8.0981  -14.7072    4.9794 C   0  0  0  0  0  0  0  0  0  0  0  0
    9.4169  -14.7185    2.2923 C   0  0  0  0  0  0  0  0  0  0  0  0
    9.6755  -14.4865    0.9345 C   0  0  0  0  0  0  0  0  0  0  0  0
    9.4614  -15.8116   -0.2201 Cl  0  0  0  0  0  0  0  0  0  0  0  0
   10.0882  -13.2467    0.5181 C   0  0  0  0  0  0  0  0  0  0  0  0
    9.9586  -10.2938   -0.0599 C   0  0  0  0  0  0  0  0  0  0  0  0
   10.3091   -9.0727   -0.5882 C   0  0  0  0  0  0  0  0  0  0  0  0
  1  2  2  0
  3  2  1  1
  2  4  1  0
  5  4  1  6
  5  6  1  0
  6 25  2  0
  6  7  1  0
  7  8  2  0
  8  9  1  0
  9 10  1  0
  9 24  2  0
 10 23  1  0
 10 11  2  0
 11 12  1  0
 13 12  1  6
 12 20  2  0
 13 19  1  0
 13 14  1  0
 17 13  1  6
 14 15  1  0
 14 16  2  3
 18 17  1  6
 19 18  1  1
 20 21  1  0
 21 22  1  0
 21 23  2  0
 24 25  1  0
M  CHG  1  16   1
M  END
$$$$
