
     RDKit          3D

 25 27  0  0  0  0  0  0  0  0999 V2000
   11.0709   -6.8861    7.6937 O   0  0  0  0  0  0  0  0  0  0  0  0
   10.1939   -7.0885    6.8421 C   0  0  0  0  0  0  0  0  0  0  0  0
    8.7488   -6.9202    7.2281 C   0  0  0  0  0  0  0  0  0  0  0  0
   10.5792   -7.4695    5.5401 N   0  0  0  0  0  0  0  0  0  0  0  0
   11.9288   -7.6423    5.0692 C   0  0  0  0  0  0  0  0  0  0  0  0
   11.9337   -7.4072    3.5984 C   0  0  0  0  0  0  0  0  0  0  0  0
   11.5036   -6.2444    3.0069 C   0  0  0  0  0  0  0  0  0  0  0  0
   11.5226   -6.0858    1.6229 C   0  0  0  0  0  0  0  0  0  0  0  0
   11.9728   -7.0864    0.7951 C   0  0  0  0  0  0  0  0  0  0  0  0
   12.0167   -6.9849   -0.6604 C   0  0  0  0  0  0  0  0  0  0  0  0
   11.0612   -6.3777   -1.4046 C   0  0  0  0  0  0  0  0  0  0  0  0
   11.1021   -6.2799   -2.7988 C   0  0  0  0  0  0  0  0  0  0  0  0
   10.0249   -5.5979   -3.5203 C   0  0  1  0  0  0  0  0  0  0  0  0
   10.0648   -4.1219   -3.3881 C   0  0  0  0  0  0  0  0  0  0  0  0
   11.1780   -3.3933   -3.9492 N   0  0  0  0  0  0  0  0  0  0  0  0
    9.1856   -3.4203   -2.8043 N   0  0  0  0  0  4  0  0  0  0  0  0
    9.9515   -5.9655   -4.9938 C   0  0  0  0  0  0  0  0  0  0  0  0
    8.4126   -5.8017   -4.8433 C   0  0  0  0  0  0  0  0  0  0  0  0
    8.6626   -6.2057   -3.3767 C   0  0  0  0  0  0  0  0  0  0  0  0
   12.1815   -6.8383   -3.4283 C   0  0  0  0  0  0  0  0  0  0  0  0
   13.1866   -7.4738   -2.6865 C   0  0  0  0  0  0  0  0  0  0  0  0
   14.5661   -8.1839   -3.5397 Cl  0  0  0  0  0  0  0  0  0  0  0  0
   13.0920   -7.5386   -1.3199 C   0  0  0  0  0  0  0  0  0  0  0  0
   12.3999   -8.2435    1.4017 C   0  0  0  0  0  0  0  0  0  0  0  0
   12.3881   -8.4177    2.7664 C   0  0  0  0  0  0  0  0  0  0  0  0
  1  2  2  0
  3  2  1  1
  2  4  1  0
  5  4  1  6
  5  6  1  0
  6 25  2  0
  6  7  1  0
  7  8  2  0
  8  9  1  0
  9 10  1  0
  9 24  2  0
 10 23  1  0
 10 11  2  0
 11 12  1  0
 13 12  1  1
 12 20  2  0
 13 19  1  0
 13 14  1  0
 17 13  1  6
 14 15  1  0
 14 16  2  3
 18 17  1  6
 19 18  1  1
 20 21  1  0
 21 22  1  0
 21 23  2  0
 24 25  1  0
M  CHG  1  16   1
M  END
$$$$
