
     RDKit          3D

 25 27  0  0  0  0  0  0  0  0999 V2000
   12.9558  -16.7739    3.9550 O   0  0  0  0  0  0  0  0  0  0  0  0
   12.7563  -17.3807    5.0167 C   0  0  0  0  0  0  0  0  0  0  0  0
   13.6180  -18.5686    5.3518 C   0  0  0  0  0  0  0  0  0  0  0  0
   11.7289  -16.9380    5.8753 N   0  0  0  0  0  0  0  0  0  0  0  0
   10.8235  -15.8467    5.6257 C   0  0  0  0  0  0  0  0  0  0  0  0
    9.7738  -15.8724    6.6821 C   0  0  0  0  0  0  0  0  0  0  0  0
    9.5535  -16.9402    7.5177 C   0  0  0  0  0  0  0  0  0  0  0  0
    8.5486  -16.9101    8.4820 C   0  0  0  0  0  0  0  0  0  0  0  0
    7.7382  -15.8105    8.6354 C   0  0  0  0  0  0  0  0  0  0  0  0
    6.6677  -15.7159    9.6232 C   0  0  0  0  0  0  0  0  0  0  0  0
    6.8491  -15.2856   10.8950 C   0  0  0  0  0  0  0  0  0  0  0  0
    5.8244  -15.1946   11.8421 C   0  0  0  0  0  0  0  0  0  0  0  0
    6.1135  -14.7110   13.1944 C   0  0  1  0  0  0  0  0  0  0  0  0
    6.3350  -15.7978   14.1778 C   0  0  0  0  0  0  0  0  0  0  0  0
    5.3027  -16.7867   14.3808 N   0  0  0  0  0  0  0  0  0  0  0  0
    7.3789  -15.9389   14.8825 N   0  0  0  0  0  4  0  0  0  0  0  0
    7.2791  -13.7366   13.2559 C   0  0  0  0  0  0  0  0  0  0  0  0
    6.4931  -13.0422   14.4038 C   0  0  0  0  0  0  0  0  0  0  0  0
    5.2465  -13.5895   13.6807 C   0  0  0  0  0  0  0  0  0  0  0  0
    4.5713  -15.5679   11.4378 C   0  0  0  0  0  0  0  0  0  0  0  0
    4.3511  -16.0177   10.1288 C   0  0  0  0  0  0  0  0  0  0  0  0
    2.7148  -16.4916    9.6463 Cl  0  0  0  0  0  0  0  0  0  0  0  0
    5.3961  -16.0855    9.2432 C   0  0  0  0  0  0  0  0  0  0  0  0
    7.9709  -14.7502    7.7924 C   0  0  0  0  0  0  0  0  0  0  0  0
    8.9584  -14.7625    6.8345 C   0  0  0  0  0  0  0  0  0  0  0  0
  1  2  2  0
  3  2  1  1
  2  4  1  0
  5  4  1  6
  5  6  1  0
  6 25  2  0
  6  7  1  0
  7  8  2  0
  8  9  1  0
  9 10  1  0
  9 24  2  0
 10 23  1  0
 10 11  2  0
 11 12  1  0
 13 12  1  6
 12 20  2  0
 13 19  1  0
 13 14  1  0
 17 13  1  6
 14 15  1  0
 14 16  2  3
 18 17  1  6
 19 18  1  1
 20 21  1  0
 21 22  1  0
 21 23  2  0
 24 25  1  0
M  CHG  1  16   1
M  END
$$$$
