
     RDKit          3D

 25 27  0  0  0  0  0  0  0  0999 V2000
   11.6022   -7.6145    6.2385 O   0  0  0  0  0  0  0  0  0  0  0  0
   11.4927   -6.6001    5.5356 C   0  0  0  0  0  0  0  0  0  0  0  0
   11.4121   -5.2539    6.2041 C   0  0  0  0  0  0  0  0  0  0  0  0
   11.4475   -6.7409    4.1332 N   0  0  0  0  0  0  0  0  0  0  0  0
   11.5726   -7.9724    3.3979 C   0  0  0  0  0  0  0  0  0  0  0  0
   11.5360   -7.6438    1.9455 C   0  0  0  0  0  0  0  0  0  0  0  0
   10.3806   -7.3980    1.2443 C   0  0  0  0  0  0  0  0  0  0  0  0
   10.4082   -7.1050   -0.1173 C   0  0  0  0  0  0  0  0  0  0  0  0
   11.5927   -7.0500   -0.8126 C   0  0  0  0  0  0  0  0  0  0  0  0
   11.6903   -6.7511   -2.2380 C   0  0  0  0  0  0  0  0  0  0  0  0
   12.3752   -5.6971   -2.7437 C   0  0  0  0  0  0  0  0  0  0  0  0
   12.4694   -5.4098   -4.1089 C   0  0  0  0  0  0  0  0  0  0  0  0
   13.2389   -4.2496   -4.5649 C   0  0  1  0  0  0  0  0  0  0  0  0
   14.6694   -4.2984   -4.1792 C   0  0  0  0  0  0  0  0  0  0  0  0
   15.4717   -5.4277   -4.5866 N   0  0  0  0  0  0  0  0  0  0  0  0
   15.2694   -3.4137   -3.4985 N   0  0  0  0  0  4  0  0  0  0  0  0
   13.1333   -3.9991   -6.0608 C   0  0  0  0  0  0  0  0  0  0  0  0
   13.2280   -2.4892   -5.7017 C   0  0  0  0  0  0  0  0  0  0  0  0
   12.5800   -2.9177   -4.3702 C   0  0  0  0  0  0  0  0  0  0  0  0
   11.8231   -6.2575   -4.9672 C   0  0  0  0  0  0  0  0  0  0  0  0
   11.1060   -7.3566   -4.4752 C   0  0  0  0  0  0  0  0  0  0  0  0
   10.2836   -8.4286   -5.6194 Cl  0  0  0  0  0  0  0  0  0  0  0  0
   11.0491   -7.5881   -3.1246 C   0  0  0  0  0  0  0  0  0  0  0  0
   12.7399   -7.2980   -0.0974 C   0  0  0  0  0  0  0  0  0  0  0  0
   12.7316   -7.5890    1.2473 C   0  0  0  0  0  0  0  0  0  0  0  0
  1  2  2  0
  3  2  1  1
  2  4  1  0
  5  4  1  6
  5  6  1  0
  6 25  2  0
  6  7  1  0
  7  8  2  0
  8  9  1  0
  9 10  1  0
  9 24  2  0
 10 23  1  0
 10 11  2  0
 11 12  1  0
 13 12  1  6
 12 20  2  0
 13 19  1  0
 13 14  1  0
 17 13  1  6
 14 15  1  0
 14 16  2  3
 18 17  1  6
 19 18  1  1
 20 21  1  0
 21 22  1  0
 21 23  2  0
 24 25  1  0
M  CHG  1  16   1
M  END
$$$$
