
     RDKit          3D

 25 27  0  0  0  0  0  0  0  0999 V2000
   28.5998  -10.7198  -23.2639 O   0  0  0  0  0  0  0  0  0  0  0  0
   27.5875  -10.3531  -22.6508 C   0  0  0  0  0  0  0  0  0  0  0  0
   26.5667   -9.5090  -23.3659 C   0  0  0  0  0  0  0  0  0  0  0  0
   27.4257  -10.7389  -21.3041 N   0  0  0  0  0  0  0  0  0  0  0  0
   28.3693  -11.4868  -20.5147 C   0  0  0  0  0  0  0  0  0  0  0  0
   27.7374  -11.7736  -19.1967 C   0  0  0  0  0  0  0  0  0  0  0  0
   27.5833  -13.0368  -18.6794 C   0  0  0  0  0  0  0  0  0  0  0  0
   26.9745  -13.2441  -17.4436 C   0  0  0  0  0  0  0  0  0  0  0  0
   26.5045  -12.1928  -16.6933 C   0  0  0  0  0  0  0  0  0  0  0  0
   25.8561  -12.3417  -15.3940 C   0  0  0  0  0  0  0  0  0  0  0  0
   26.4319  -11.9938  -14.2180 C   0  0  0  0  0  0  0  0  0  0  0  0
   25.8118  -12.1360  -12.9728 C   0  0  0  0  0  0  0  0  0  0  0  0
   26.5104  -11.7259  -11.7522 C   0  0  1  0  0  0  0  0  0  0  0  0
   26.2233  -10.3295  -11.3457 C   0  0  0  0  0  0  0  0  0  0  0  0
   26.9877   -9.2532  -11.9306 N   0  0  0  0  0  0  0  0  0  0  0  0
   25.3437   -9.9846  -10.5010 N   0  0  0  0  0  4  0  0  0  0  0  0
   26.2645  -12.6505  -10.5705 C   0  0  0  0  0  0  0  0  0  0  0  0
   27.7278  -12.3270  -10.1559 C   0  0  0  0  0  0  0  0  0  0  0  0
   27.9533  -12.1218  -11.6671 C   0  0  0  0  0  0  0  0  0  0  0  0
   24.5477  -12.6603  -12.9658 C   0  0  0  0  0  0  0  0  0  0  0  0
   23.9248  -13.0301  -14.1656 C   0  0  0  0  0  0  0  0  0  0  0  0
   22.2888  -13.7051  -14.1125 Cl  0  0  0  0  0  0  0  0  0  0  0  0
   24.5831  -12.8670  -15.3576 C   0  0  0  0  0  0  0  0  0  0  0  0
   26.6661  -10.9352  -17.2239 C   0  0  0  0  0  0  0  0  0  0  0  0
   27.2646  -10.7118  -18.4424 C   0  0  0  0  0  0  0  0  0  0  0  0
  1  2  2  0
  3  2  1  1
  2  4  1  0
  5  4  1  6
  5  6  1  0
  6 25  2  0
  6  7  1  0
  7  8  2  0
  8  9  1  0
  9 10  1  0
  9 24  2  0
 10 23  1  0
 10 11  2  0
 11 12  1  0
 13 12  1  6
 12 20  2  0
 13 19  1  0
 13 14  1  0
 17 13  1  6
 14 15  1  0
 14 16  2  3
 18 17  1  6
 19 18  1  1
 20 21  1  0
 21 22  1  0
 21 23  2  0
 24 25  1  0
M  CHG  1  16   1
M  END
$$$$
