
     RDKit          3D

 25 27  0  0  0  0  0  0  0  0999 V2000
    3.5199  -19.2398    5.8838 O   0  0  0  0  0  0  0  0  0  0  0  0
    3.4804  -19.5090    7.0925 C   0  0  0  0  0  0  0  0  0  0  0  0
    3.0486  -20.8862    7.5200 C   0  0  0  0  0  0  0  0  0  0  0  0
    3.8414  -18.5164    8.0269 N   0  0  0  0  0  0  0  0  0  0  0  0
    4.4412  -17.2427    7.7252 C   0  0  0  0  0  0  0  0  0  0  0  0
    4.5436  -16.4727    8.9961 C   0  0  0  0  0  0  0  0  0  0  0  0
    4.3747  -15.1123    9.0836 C   0  0  0  0  0  0  0  0  0  0  0  0
    4.4924  -14.4446   10.3006 C   0  0  0  0  0  0  0  0  0  0  0  0
    4.7818  -15.1210   11.4616 C   0  0  0  0  0  0  0  0  0  0  0  0
    4.9205  -14.4819   12.7667 C   0  0  0  0  0  0  0  0  0  0  0  0
    6.0584  -14.5044   13.5018 C   0  0  0  0  0  0  0  0  0  0  0  0
    6.1924  -13.8927   14.7520 C   0  0  0  0  0  0  0  0  0  0  0  0
    7.4657  -13.9638   15.4729 C   0  0  1  0  0  0  0  0  0  0  0  0
    8.6252  -13.4979   14.6753 C   0  0  0  0  0  0  0  0  0  0  0  0
    8.5951  -12.1775   14.0917 N   0  0  0  0  0  0  0  0  0  0  0  0
    9.6708  -14.1768   14.4478 N   0  0  0  0  0  4  0  0  0  0  0  0
    7.4515  -13.2340   16.8067 C   0  0  0  0  0  0  0  0  0  0  0  0
    8.4134  -14.3510   17.3014 C   0  0  0  0  0  0  0  0  0  0  0  0
    7.7016  -15.2240   16.2489 C   0  0  0  0  0  0  0  0  0  0  0  0
    5.0955  -13.2377   15.2428 C   0  0  0  0  0  0  0  0  0  0  0  0
    3.9037  -13.1965   14.5065 C   0  0  0  0  0  0  0  0  0  0  0  0
    2.5076  -12.3390   15.1776 Cl  0  0  0  0  0  0  0  0  0  0  0  0
    3.8318  -13.8156   13.2848 C   0  0  0  0  0  0  0  0  0  0  0  0
    4.9477  -16.4814   11.3581 C   0  0  0  0  0  0  0  0  0  0  0  0
    4.8353  -17.1572   10.1650 C   0  0  0  0  0  0  0  0  0  0  0  0
  1  2  2  0
  3  2  1  1
  2  4  1  0
  5  4  1  6
  5  6  1  0
  6 25  2  0
  6  7  1  0
  7  8  2  0
  8  9  1  0
  9 10  1  0
  9 24  2  0
 10 23  1  0
 10 11  2  0
 11 12  1  0
 13 12  1  6
 12 20  2  0
 13 19  1  0
 13 14  1  0
 17 13  1  6
 14 15  1  0
 14 16  2  3
 18 17  1  6
 19 18  1  1
 20 21  1  0
 21 22  1  0
 21 23  2  0
 24 25  1  0
M  CHG  1  16   1
M  END
$$$$
