
     RDKit          3D

 25 27  0  0  0  0  0  0  0  0999 V2000
   10.1988  -12.7958   15.7396 O   0  0  0  0  0  0  0  0  0  0  0  0
   10.5487  -13.4292   14.7339 C   0  0  0  0  0  0  0  0  0  0  0  0
   11.8339  -14.2117   14.7744 C   0  0  0  0  0  0  0  0  0  0  0  0
    9.7309  -13.3960   13.5854 N   0  0  0  0  0  0  0  0  0  0  0  0
    8.5470  -12.5962   13.4075 C   0  0  0  0  0  0  0  0  0  0  0  0
    7.6355  -13.3275   12.4840 C   0  0  0  0  0  0  0  0  0  0  0  0
    6.8282  -14.3697   12.8702 C   0  0  0  0  0  0  0  0  0  0  0  0
    6.0025  -15.0228   11.9578 C   0  0  0  0  0  0  0  0  0  0  0  0
    5.9630  -14.6499   10.6355 C   0  0  0  0  0  0  0  0  0  0  0  0
    5.1229  -15.2931    9.6298 C   0  0  0  0  0  0  0  0  0  0  0  0
    5.5578  -15.6474    8.3966 C   0  0  0  0  0  0  0  0  0  0  0  0
    4.7541  -16.2636    7.4325 C   0  0  0  0  0  0  0  0  0  0  0  0
    5.3134  -16.6172    6.1255 C   0  0  1  0  0  0  0  0  0  0  0  0
    6.2419  -17.7719    6.1709 C   0  0  0  0  0  0  0  0  0  0  0  0
    5.7036  -19.1053    6.3015 N   0  0  0  0  0  0  0  0  0  0  0  0
    7.5052  -17.6916    6.1090 N   0  0  0  0  0  4  0  0  0  0  0  0
    4.2584  -16.8664    5.0594 C   0  0  0  0  0  0  0  0  0  0  0  0
    5.2826  -16.2555    4.0616 C   0  0  0  0  0  0  0  0  0  0  0  0
    5.7816  -15.4660    5.2880 C   0  0  0  0  0  0  0  0  0  0  0  0
    3.4535  -16.5141    7.7773 C   0  0  0  0  0  0  0  0  0  0  0  0
    2.9733  -16.1594    9.0453 C   0  0  0  0  0  0  0  0  0  0  0  0
    1.2840  -16.5007    9.4513 Cl  0  0  0  0  0  0  0  0  0  0  0  0
    3.8093  -15.5570    9.9503 C   0  0  0  0  0  0  0  0  0  0  0  0
    6.7760  -13.6056   10.2645 C   0  0  0  0  0  0  0  0  0  0  0  0
    7.5976  -12.9493   11.1515 C   0  0  0  0  0  0  0  0  0  0  0  0
  1  2  2  0
  3  2  1  1
  2  4  1  0
  5  4  1  6
  5  6  1  0
  6 25  2  0
  6  7  1  0
  7  8  2  0
  8  9  1  0
  9 10  1  0
  9 24  2  0
 10 23  1  0
 10 11  2  0
 11 12  1  0
 13 12  1  1
 12 20  2  0
 13 19  1  0
 13 14  1  0
 17 13  1  6
 14 15  1  0
 14 16  2  3
 18 17  1  6
 19 18  1  1
 20 21  1  0
 21 22  1  0
 21 23  2  0
 24 25  1  0
M  CHG  1  16   1
M  END
$$$$
