
     RDKit          3D

 25 27  0  0  0  0  0  0  0  0999 V2000
    4.3064  -12.6448   17.1775 O   0  0  0  0  0  0  0  0  0  0  0  0
    3.6263  -13.5373   16.6521 C   0  0  0  0  0  0  0  0  0  0  0  0
    2.4574  -14.1066   17.4106 C   0  0  0  0  0  0  0  0  0  0  0  0
    3.9701  -13.9896   15.3614 N   0  0  0  0  0  0  0  0  0  0  0  0
    5.1118  -13.5716   14.5901 C   0  0  0  0  0  0  0  0  0  0  0  0
    5.1850  -14.4335   13.3775 C   0  0  0  0  0  0  0  0  0  0  0  0
    6.2427  -15.2608   13.0881 C   0  0  0  0  0  0  0  0  0  0  0  0
    6.2595  -16.0374   11.9317 C   0  0  0  0  0  0  0  0  0  0  0  0
    5.2182  -16.0065   11.0350 C   0  0  0  0  0  0  0  0  0  0  0  0
    5.1749  -16.7925    9.8058 C   0  0  0  0  0  0  0  0  0  0  0  0
    5.0127  -16.2569    8.5719 C   0  0  0  0  0  0  0  0  0  0  0  0
    4.9709  -17.0088    7.3937 C   0  0  0  0  0  0  0  0  0  0  0  0
    4.7982  -16.3414    6.1011 C   0  0  1  0  0  0  0  0  0  0  0  0
    3.7669  -15.2767    6.1169 C   0  0  0  0  0  0  0  0  0  0  0  0
    3.8495  -14.2293    7.1073 N   0  0  0  0  0  0  0  0  0  0  0  0
    2.7856  -15.2032    5.3182 N   0  0  0  0  0  4  0  0  0  0  0  0
    6.0895  -15.7775    5.5300 C   0  0  0  0  0  0  0  0  0  0  0  0
    5.5006  -16.1392    4.1371 C   0  0  0  0  0  0  0  0  0  0  0  0
    4.7512  -17.2451    4.9064 C   0  0  0  0  0  0  0  0  0  0  0  0
    5.1039  -18.3652    7.5185 C   0  0  0  0  0  0  0  0  0  0  0  0
    5.2730  -18.9497    8.7811 C   0  0  0  0  0  0  0  0  0  0  0  0
    5.4409  -20.7083    8.8988 Cl  0  0  0  0  0  0  0  0  0  0  0  0
    5.3062  -18.1604    9.9022 C   0  0  0  0  0  0  0  0  0  0  0  0
    4.1673  -15.1743   11.3385 C   0  0  0  0  0  0  0  0  0  0  0  0
    4.1337  -14.4004   12.4754 C   0  0  0  0  0  0  0  0  0  0  0  0
  1  2  2  0
  3  2  1  1
  2  4  1  0
  5  4  1  6
  5  6  1  0
  6 25  2  0
  6  7  1  0
  7  8  2  0
  8  9  1  0
  9 10  1  0
  9 24  2  0
 10 23  1  0
 10 11  2  0
 11 12  1  0
 13 12  1  1
 12 20  2  0
 13 19  1  0
 13 14  1  0
 17 13  1  6
 14 15  1  0
 14 16  2  3
 18 17  1  6
 19 18  1  1
 20 21  1  0
 21 22  1  0
 21 23  2  0
 24 25  1  0
M  CHG  1  16   1
M  END
$$$$
