
     RDKit          3D

 25 27  0  0  0  0  0  0  0  0999 V2000
   13.6773   -9.6513    7.4384 O   0  0  0  0  0  0  0  0  0  0  0  0
   13.4009  -10.8267    7.7160 C   0  0  0  0  0  0  0  0  0  0  0  0
   14.4193  -11.9006    7.4411 C   0  0  0  0  0  0  0  0  0  0  0  0
   12.1419  -11.1188    8.2801 N   0  0  0  0  0  0  0  0  0  0  0  0
   11.1942  -10.1606    8.7865 C   0  0  0  0  0  0  0  0  0  0  0  0
   10.0100  -10.9106    9.2902 C   0  0  0  0  0  0  0  0  0  0  0  0
    8.9580  -10.3265    9.9529 C   0  0  0  0  0  0  0  0  0  0  0  0
    7.8807  -11.0821   10.4101 C   0  0  0  0  0  0  0  0  0  0  0  0
    7.8278  -12.4417   10.2158 C   0  0  0  0  0  0  0  0  0  0  0  0
    6.7306  -13.2902   10.6708 C   0  0  0  0  0  0  0  0  0  0  0  0
    5.9620  -14.0395    9.8442 C   0  0  0  0  0  0  0  0  0  0  0  0
    4.9108  -14.8525   10.2790 C   0  0  0  0  0  0  0  0  0  0  0  0
    4.1367  -15.6340    9.3114 C   0  0  1  0  0  0  0  0  0  0  0  0
    3.0559  -14.8610    8.6543 C   0  0  0  0  0  0  0  0  0  0  0  0
    1.9229  -14.4270    9.4370 N   0  0  0  0  0  0  0  0  0  0  0  0
    3.0332  -14.5411    7.4282 N   0  0  0  0  0  4  0  0  0  0  0  0
    4.9914  -16.3023    8.2461 C   0  0  0  0  0  0  0  0  0  0  0  0
    3.9509  -17.4569    8.2945 C   0  0  0  0  0  0  0  0  0  0  0  0
    3.7449  -17.0107    9.7556 C   0  0  0  0  0  0  0  0  0  0  0  0
    4.6614  -14.8772   11.6244 C   0  0  0  0  0  0  0  0  0  0  0  0
    5.4386  -14.1132   12.5056 C   0  0  0  0  0  0  0  0  0  0  0  0
    5.0827  -14.1732   14.2390 Cl  0  0  0  0  0  0  0  0  0  0  0  0
    6.4576  -13.3339   12.0204 C   0  0  0  0  0  0  0  0  0  0  0  0
    8.8873  -13.0116    9.5510 C   0  0  0  0  0  0  0  0  0  0  0  0
    9.9594  -12.2811    9.0927 C   0  0  0  0  0  0  0  0  0  0  0  0
  1  2  2  0
  3  2  1  1
  2  4  1  0
  5  4  1  6
  5  6  1  0
  6 25  2  0
  6  7  1  0
  7  8  2  0
  8  9  1  0
  9 10  1  0
  9 24  2  0
 10 23  1  0
 10 11  2  0
 11 12  1  0
 13 12  1  1
 12 20  2  0
 13 19  1  0
 13 14  1  0
 17 13  1  6
 14 15  1  0
 14 16  2  3
 18 17  1  6
 19 18  1  1
 20 21  1  0
 21 22  1  0
 21 23  2  0
 24 25  1  0
M  CHG  1  16   1
M  END
$$$$
