
     RDKit          3D

 25 27  0  0  0  0  0  0  0  0999 V2000
   28.9213  -10.2618   -7.6236 O   0  0  0  0  0  0  0  0  0  0  0  0
   29.1545  -11.1072   -8.4988 C   0  0  0  0  0  0  0  0  0  0  0  0
   30.4828  -11.8153   -8.4944 C   0  0  0  0  0  0  0  0  0  0  0  0
   28.1678  -11.3776   -9.4694 N   0  0  0  0  0  0  0  0  0  0  0  0
   26.9062  -10.6985   -9.6112 C   0  0  0  0  0  0  0  0  0  0  0  0
   26.2804  -11.1568  -10.8828 C   0  0  0  0  0  0  0  0  0  0  0  0
   25.0419  -11.7461  -10.9585 C   0  0  0  0  0  0  0  0  0  0  0  0
   24.5118  -12.1640  -12.1772 C   0  0  0  0  0  0  0  0  0  0  0  0
   25.2073  -12.0027  -13.3517 C   0  0  0  0  0  0  0  0  0  0  0  0
   24.7104  -12.4199  -14.6594 C   0  0  0  0  0  0  0  0  0  0  0  0
   25.4124  -12.2901  -15.8109 C   0  0  0  0  0  0  0  0  0  0  0  0
   24.9375  -12.6893  -17.0640 C   0  0  0  0  0  0  0  0  0  0  0  0
   25.7712  -12.5155  -18.2560 C   0  0  1  0  0  0  0  0  0  0  0  0
   25.1472  -11.6641  -19.2967 C   0  0  0  0  0  0  0  0  0  0  0  0
   23.8043  -11.1734  -19.0950 N   0  0  0  0  0  0  0  0  0  0  0  0
   25.7011  -11.3216  -20.3840 N   0  0  0  0  0  4  0  0  0  0  0  0
   27.1657  -11.9915  -17.9521 C   0  0  0  0  0  0  0  0  0  0  0  0
   27.6351  -12.8710  -19.1454 C   0  0  0  0  0  0  0  0  0  0  0  0
   26.4310  -13.7582  -18.7721 C   0  0  0  0  0  0  0  0  0  0  0  0
   23.6860  -13.2415  -17.1058 C   0  0  0  0  0  0  0  0  0  0  0  0
   22.9345  -13.3892  -15.9320 C   0  0  0  0  0  0  0  0  0  0  0  0
   21.3194  -14.1081  -16.0298 Cl  0  0  0  0  0  0  0  0  0  0  0  0
   23.4534  -12.9789  -14.7306 C   0  0  0  0  0  0  0  0  0  0  0  0
   26.4447  -11.4115  -13.2599 C   0  0  0  0  0  0  0  0  0  0  0  0
   26.9838  -10.9929  -12.0653 C   0  0  0  0  0  0  0  0  0  0  0  0
  1  2  2  0
  3  2  1  1
  2  4  1  0
  5  4  1  6
  5  6  1  0
  6 25  2  0
  6  7  1  0
  7  8  2  0
  8  9  1  0
  9 10  1  0
  9 24  2  0
 10 23  1  0
 10 11  2  0
 11 12  1  0
 13 12  1  1
 12 20  2  0
 13 19  1  0
 13 14  1  0
 17 13  1  6
 14 15  1  0
 14 16  2  3
 18 17  1  6
 19 18  1  1
 20 21  1  0
 21 22  1  0
 21 23  2  0
 24 25  1  0
M  CHG  1  16   1
M  END
$$$$
