
     RDKit          3D

 25 27  0  0  0  0  0  0  0  0999 V2000
    3.1278  -18.4113    0.5143 O   0  0  0  0  0  0  0  0  0  0  0  0
    4.3262  -18.1291    0.6531 C   0  0  0  0  0  0  0  0  0  0  0  0
    4.9572  -18.2718    2.0123 C   0  0  0  0  0  0  0  0  0  0  0  0
    5.0587  -17.6839   -0.4667 N   0  0  0  0  0  0  0  0  0  0  0  0
    4.5171  -17.3461   -1.7573 C   0  0  0  0  0  0  0  0  0  0  0  0
    5.6468  -16.9227   -2.6308 C   0  0  0  0  0  0  0  0  0  0  0  0
    6.0852  -15.6256   -2.7419 C   0  0  0  0  0  0  0  0  0  0  0  0
    7.1421  -15.2879   -3.5842 C   0  0  0  0  0  0  0  0  0  0  0  0
    7.7879  -16.2393   -4.3371 C   0  0  0  0  0  0  0  0  0  0  0  0
    8.8989  -15.9517   -5.2393 C   0  0  0  0  0  0  0  0  0  0  0  0
    8.8163  -15.1045   -6.2933 C   0  0  0  0  0  0  0  0  0  0  0  0
    9.8798  -14.8283   -7.1581 C   0  0  0  0  0  0  0  0  0  0  0  0
    9.6995  -13.8914   -8.2699 C   0  0  1  0  0  0  0  0  0  0  0  0
   10.3027  -12.5594   -8.0262 C   0  0  0  0  0  0  0  0  0  0  0  0
   10.8494  -12.2601   -6.7238 N   0  0  0  0  0  0  0  0  0  0  0  0
   10.3795  -11.6286   -8.8828 N   0  0  0  0  0  4  0  0  0  0  0  0
   10.1947  -14.4274   -9.6037 C   0  0  0  0  0  0  0  0  0  0  0  0
    9.0186  -13.6292  -10.2343 C   0  0  0  0  0  0  0  0  0  0  0  0
    8.3288  -13.8602   -8.8752 C   0  0  0  0  0  0  0  0  0  0  0  0
   11.0656  -15.4633   -6.9056 C   0  0  0  0  0  0  0  0  0  0  0  0
   11.1830  -16.3457   -5.8231 C   0  0  0  0  0  0  0  0  0  0  0  0
   12.7346  -17.1472   -5.5315 Cl  0  0  0  0  0  0  0  0  0  0  0  0
   10.1043  -16.5773   -5.0084 C   0  0  0  0  0  0  0  0  0  0  0  0
    7.3382  -17.5323   -4.2151 C   0  0  0  0  0  0  0  0  0  0  0  0
    6.2961  -17.8841   -3.3886 C   0  0  0  0  0  0  0  0  0  0  0  0
  1  2  2  0
  3  2  1  1
  2  4  1  0
  5  4  1  6
  5  6  1  0
  6 25  2  0
  6  7  1  0
  7  8  2  0
  8  9  1  0
  9 10  1  0
  9 24  2  0
 10 23  1  0
 10 11  2  0
 11 12  1  0
 13 12  1  1
 12 20  2  0
 13 19  1  0
 13 14  1  0
 17 13  1  6
 14 15  1  0
 14 16  2  3
 18 17  1  6
 19 18  1  1
 20 21  1  0
 21 22  1  0
 21 23  2  0
 24 25  1  0
M  CHG  1  16   1
M  END
$$$$
