
     RDKit          3D

 25 27  0  0  0  0  0  0  0  0999 V2000
    1.6452  -13.2149   15.1213 O   0  0  0  0  0  0  0  0  0  0  0  0
    2.2273  -14.2995   14.9803 C   0  0  0  0  0  0  0  0  0  0  0  0
    1.9973  -15.3887   15.9934 C   0  0  0  0  0  0  0  0  0  0  0  0
    3.0854  -14.4771   13.8753 N   0  0  0  0  0  0  0  0  0  0  0  0
    3.4410  -13.4743   12.9053 C   0  0  0  0  0  0  0  0  0  0  0  0
    4.3300  -14.1111   11.8940 C   0  0  0  0  0  0  0  0  0  0  0  0
    5.5707  -14.6264   12.1805 C   0  0  0  0  0  0  0  0  0  0  0  0
    6.3624  -15.2021   11.1893 C   0  0  0  0  0  0  0  0  0  0  0  0
    5.9331  -15.2773    9.8858 C   0  0  0  0  0  0  0  0  0  0  0  0
    6.7134  -15.8649    8.8011 C   0  0  0  0  0  0  0  0  0  0  0  0
    8.0132  -15.5688    8.5590 C   0  0  0  0  0  0  0  0  0  0  0  0
    8.7616  -16.1311    7.5203 C   0  0  0  0  0  0  0  0  0  0  0  0
   10.1658  -15.7551    7.3384 C   0  0  1  0  0  0  0  0  0  0  0  0
   10.3584  -14.3211    7.0159 C   0  0  0  0  0  0  0  0  0  0  0  0
   10.3347  -13.8992    5.6352 N   0  0  0  0  0  0  0  0  0  0  0  0
   10.5535  -13.4041    7.8687 N   0  0  0  0  0  4  0  0  0  0  0  0
   11.0523  -16.1254    8.5168 C   0  0  0  0  0  0  0  0  0  0  0  0
   12.1645  -16.3732    7.4587 C   0  0  0  0  0  0  0  0  0  0  0  0
   10.9887  -16.7007    6.5171 C   0  0  0  0  0  0  0  0  0  0  0  0
    8.1223  -17.0319    6.7123 C   0  0  0  0  0  0  0  0  0  0  0  0
    6.7781  -17.3592    6.9367 C   0  0  0  0  0  0  0  0  0  0  0  0
    5.9880  -18.5290    5.8680 Cl  0  0  0  0  0  0  0  0  0  0  0  0
    6.0947  -16.7749    7.9723 C   0  0  0  0  0  0  0  0  0  0  0  0
    4.6898  -14.7577    9.6148 C   0  0  0  0  0  0  0  0  0  0  0  0
    3.8945  -14.1856   10.5807 C   0  0  0  0  0  0  0  0  0  0  0  0
  1  2  2  0
  3  2  1  1
  2  4  1  0
  5  4  1  6
  5  6  1  0
  6 25  2  0
  6  7  1  0
  7  8  2  0
  8  9  1  0
  9 10  1  0
  9 24  2  0
 10 23  1  0
 10 11  2  0
 11 12  1  0
 13 12  1  1
 12 20  2  0
 13 19  1  0
 13 14  1  0
 17 13  1  6
 14 15  1  0
 14 16  2  3
 18 17  1  6
 19 18  1  1
 20 21  1  0
 21 22  1  0
 21 23  2  0
 24 25  1  0
M  CHG  1  16   1
M  END
$$$$
