
     RDKit          3D

 25 27  0  0  0  0  0  0  0  0999 V2000
    8.4813   -5.2243    7.3079 O   0  0  0  0  0  0  0  0  0  0  0  0
    7.6601   -6.0339    6.8549 C   0  0  0  0  0  0  0  0  0  0  0  0
    6.6608   -5.5648    5.8316 C   0  0  0  0  0  0  0  0  0  0  0  0
    7.6894   -7.3673    7.3129 N   0  0  0  0  0  0  0  0  0  0  0  0
    8.5858   -7.9070    8.3020 C   0  0  0  0  0  0  0  0  0  0  0  0
    7.9181   -9.0792    8.9334 C   0  0  0  0  0  0  0  0  0  0  0  0
    6.7460   -9.6313    8.4767 C   0  0  0  0  0  0  0  0  0  0  0  0
    6.1625  -10.7230    9.1157 C   0  0  0  0  0  0  0  0  0  0  0  0
    6.7367  -11.2909   10.2278 C   0  0  0  0  0  0  0  0  0  0  0  0
    6.1763  -12.4328   10.9440 C   0  0  0  0  0  0  0  0  0  0  0  0
    6.9088  -13.4880   11.3747 C   0  0  0  0  0  0  0  0  0  0  0  0
    6.3731  -14.5823   12.0607 C   0  0  0  0  0  0  0  0  0  0  0  0
    7.2448  -15.6770   12.4943 C   0  0  1  0  0  0  0  0  0  0  0  0
    7.2949  -15.8472   13.9660 C   0  0  0  0  0  0  0  0  0  0  0  0
    8.3774  -15.2466   14.7092 N   0  0  0  0  0  0  0  0  0  0  0  0
    6.4502  -16.4972   14.6518 N   0  0  0  0  0  4  0  0  0  0  0  0
    6.9118  -17.0124   11.8482 C   0  0  0  0  0  0  0  0  0  0  0  0
    8.4405  -17.2920   11.8998 C   0  0  0  0  0  0  0  0  0  0  0  0
    8.5734  -15.7590   11.8059 C   0  0  0  0  0  0  0  0  0  0  0  0
    5.0258  -14.5649   12.3004 C   0  0  0  0  0  0  0  0  0  0  0  0
    4.2406  -13.4878   11.8675 C   0  0  0  0  0  0  0  0  0  0  0  0
    2.5011  -13.5045   12.1974 Cl  0  0  0  0  0  0  0  0  0  0  0  0
    4.8225  -12.4414   11.1987 C   0  0  0  0  0  0  0  0  0  0  0  0
    7.9090  -10.7278   10.6725 C   0  0  0  0  0  0  0  0  0  0  0  0
    8.4993   -9.6497   10.0544 C   0  0  0  0  0  0  0  0  0  0  0  0
  1  2  2  0
  3  2  1  1
  2  4  1  0
  5  4  1  6
  5  6  1  0
  6 25  2  0
  6  7  1  0
  7  8  2  0
  8  9  1  0
  9 10  1  0
  9 24  2  0
 10 23  1  0
 10 11  2  0
 11 12  1  0
 13 12  1  1
 12 20  2  0
 13 19  1  0
 13 14  1  0
 17 13  1  6
 14 15  1  0
 14 16  2  3
 18 17  1  6
 19 18  1  1
 20 21  1  0
 21 22  1  0
 21 23  2  0
 24 25  1  0
M  CHG  1  16   1
M  END
$$$$
