
     RDKit          3D

 14 15  0  0  0  0  0  0  0  0999 V2000
    3.2688  -17.7030    5.2591 N   0  0  0  0  0  4  0  0  0  0  0  0
    3.8399  -18.1854    6.2810 C   0  0  0  0  0  0  0  0  0  0  0  0
    3.5766  -19.5364    6.6388 N   0  0  0  0  0  0  0  0  0  0  0  0
    4.7736  -17.3369    7.0645 C   0  0  2  0  0  0  0  0  0  0  0  0
    5.6462  -16.4582    6.1487 C   0  0  0  0  0  0  0  0  0  0  0  0
    6.6257  -17.6028    6.1070 C   0  0  0  0  0  0  0  0  0  0  0  0
    6.0195  -18.0409    7.4501 C   0  0  0  0  0  0  0  0  0  0  0  0
    4.1038  -16.5286    8.0768 C   0  0  0  0  0  0  0  0  0  0  0  0
    3.2966  -15.4506    7.8255 C   0  0  0  0  0  0  0  0  0  0  0  0
    2.6975  -14.7431    8.8729 C   0  0  0  0  0  0  0  0  0  0  0  0
    1.6818  -13.3823    8.5020 Cl  0  0  0  0  0  0  0  0  0  0  0  0
    2.8969  -15.1032   10.1868 C   0  0  0  0  0  0  0  0  0  0  0  0
    3.7056  -16.1839   10.4494 C   0  0  0  0  0  0  0  0  0  0  0  0
    4.2828  -16.8634    9.4093 C   0  0  0  0  0  0  0  0  0  0  0  0
  1  2  2  3
  2  3  1  0
  2  4  1  0
  7  4  1  6
  4  5  1  0
  4  8  1  1
  5  6  1  1
  6  7  1  1
  8 14  1  0
  8  9  2  0
  9 10  1  0
 10 11  1  0
 10 12  2  0
 12 13  1  0
 13 14  2  0
M  CHG  1   1   1
M  END
$$$$
