
     RDKit          3D

 14 15  0  0  0  0  0  0  0  0999 V2000
    4.3502  -16.1140    9.9172 N   0  0  0  0  0  4  0  0  0  0  0  0
    4.5825  -14.8915   10.1512 C   0  0  0  0  0  0  0  0  0  0  0  0
    3.8363  -13.9059    9.4482 N   0  0  0  0  0  0  0  0  0  0  0  0
    5.6114  -14.5233   11.1570 C   0  0  2  0  0  0  0  0  0  0  0  0
    6.4765  -13.3427   10.6778 C   0  0  0  0  0  0  0  0  0  0  0  0
    7.3820  -14.3622   10.0360 C   0  0  0  0  0  0  0  0  0  0  0  0
    6.8347  -15.3559   11.0735 C   0  0  0  0  0  0  0  0  0  0  0  0
    5.0542  -14.2575   12.4782 C   0  0  0  0  0  0  0  0  0  0  0  0
    4.7932  -13.0157   12.9945 C   0  0  0  0  0  0  0  0  0  0  0  0
    4.2532  -12.8705   14.2766 C   0  0  0  0  0  0  0  0  0  0  0  0
    3.9402  -11.2734   14.8865 Cl  0  0  0  0  0  0  0  0  0  0  0  0
    3.9666  -13.9651   15.0613 C   0  0  0  0  0  0  0  0  0  0  0  0
    4.2251  -15.2160   14.5521 C   0  0  0  0  0  0  0  0  0  0  0  0
    4.7539  -15.3364   13.2941 C   0  0  0  0  0  0  0  0  0  0  0  0
  1  2  2  3
  2  3  1  0
  2  4  1  0
  7  4  1  6
  4  5  1  0
  4  8  1  1
  5  6  1  1
  6  7  1  1
  8 14  1  0
  8  9  2  0
  9 10  1  0
 10 11  1  0
 10 12  2  0
 12 13  1  0
 13 14  2  0
M  CHG  1   1   1
M  END
$$$$
