
     RDKit          3D

 14 15  0  0  0  0  0  0  0  0999 V2000
    8.8314  -17.6681    9.5364 N   0  0  0  0  0  4  0  0  0  0  0  0
    7.9906  -16.9182    8.9585 C   0  0  0  0  0  0  0  0  0  0  0  0
    6.7960  -16.5706    9.6473 N   0  0  0  0  0  0  0  0  0  0  0  0
    8.2799  -16.4144    7.5917 C   0  0  2  0  0  0  0  0  0  0  0  0
    9.7887  -16.1935    7.3757 C   0  0  0  0  0  0  0  0  0  0  0  0
    9.5866  -14.7997    7.9120 C   0  0  0  0  0  0  0  0  0  0  0  0
    8.1231  -14.9461    7.4646 C   0  0  0  0  0  0  0  0  0  0  0  0
    7.7212  -17.2552    6.5391 C   0  0  0  0  0  0  0  0  0  0  0  0
    6.5342  -17.0334    5.8920 C   0  0  0  0  0  0  0  0  0  0  0  0
    6.0893  -17.9028    4.8907 C   0  0  0  0  0  0  0  0  0  0  0  0
    4.5763  -17.5779    4.0997 Cl  0  0  0  0  0  0  0  0  0  0  0  0
    6.8249  -19.0069    4.5220 C   0  0  0  0  0  0  0  0  0  0  0  0
    8.0178  -19.2382    5.1657 C   0  0  0  0  0  0  0  0  0  0  0  0
    8.4356  -18.3745    6.1434 C   0  0  0  0  0  0  0  0  0  0  0  0
  1  2  2  3
  2  3  1  0
  2  4  1  0
  7  4  1  6
  4  5  1  0
  4  8  1  6
  5  6  1  1
  6  7  1  1
  8 14  1  0
  8  9  2  0
  9 10  1  0
 10 11  1  0
 10 12  2  0
 12 13  1  0
 13 14  2  0
M  CHG  1   1   1
M  END
$$$$
