
     RDKit          3D

 14 15  0  0  0  0  0  0  0  0999 V2000
    7.9499  -15.0479    8.2529 N   0  0  0  0  0  4  0  0  0  0  0  0
    8.5060  -14.3764    9.1710 C   0  0  0  0  0  0  0  0  0  0  0  0
    8.9984  -13.0773    8.8669 N   0  0  0  0  0  0  0  0  0  0  0  0
    8.6155  -14.9546   10.5346 C   0  0  2  0  0  0  0  0  0  0  0  0
    9.7404  -14.2852   11.3461 C   0  0  0  0  0  0  0  0  0  0  0  0
   10.6724  -15.3186   10.7677 C   0  0  0  0  0  0  0  0  0  0  0  0
    9.4240  -16.1959   10.5799 C   0  0  0  0  0  0  0  0  0  0  0  0
    7.3574  -14.9309   11.2716 C   0  0  0  0  0  0  0  0  0  0  0  0
    6.8591  -13.8545   11.9571 C   0  0  0  0  0  0  0  0  0  0  0  0
    5.6360  -13.9363   12.6308 C   0  0  0  0  0  0  0  0  0  0  0  0
    5.0469  -12.5428   13.4862 Cl  0  0  0  0  0  0  0  0  0  0  0  0
    4.8935  -15.0959   12.6290 C   0  0  0  0  0  0  0  0  0  0  0  0
    5.3852  -16.1820   11.9439 C   0  0  0  0  0  0  0  0  0  0  0  0
    6.5849  -16.0810   11.2904 C   0  0  0  0  0  0  0  0  0  0  0  0
  1  2  2  3
  2  3  1  0
  2  4  1  0
  7  4  1  6
  4  5  1  0
  4  8  1  1
  5  6  1  1
  6  7  1  1
  8 14  1  0
  8  9  2  0
  9 10  1  0
 10 11  1  0
 10 12  2  0
 12 13  1  0
 13 14  2  0
M  CHG  1   1   1
M  END
$$$$
