
     RDKit          3D

 14 15  0  0  0  0  0  0  0  0999 V2000
   -6.5660  -10.2361   -5.7505 N   0  0  0  0  0  4  0  0  0  0  0  0
   -6.6836  -11.2430   -6.5092 C   0  0  0  0  0  0  0  0  0  0  0  0
   -7.9024  -11.9755   -6.4909 N   0  0  0  0  0  0  0  0  0  0  0  0
   -5.5579  -11.6203   -7.4015 C   0  0  2  0  0  0  0  0  0  0  0  0
   -4.7319  -10.3910   -7.8239 C   0  0  0  0  0  0  0  0  0  0  0  0
   -5.6818  -10.2433   -8.9846 C   0  0  0  0  0  0  0  0  0  0  0  0
   -5.9564  -11.7473   -8.8234 C   0  0  0  0  0  0  0  0  0  0  0  0
   -4.6992  -12.6552   -6.8372 C   0  0  0  0  0  0  0  0  0  0  0  0
   -4.5974  -13.9411   -7.2988 C   0  0  0  0  0  0  0  0  0  0  0  0
   -3.7377  -14.8579   -6.6850 C   0  0  0  0  0  0  0  0  0  0  0  0
   -3.6443  -16.4777   -7.3082 Cl  0  0  0  0  0  0  0  0  0  0  0  0
   -2.9674  -14.5023   -5.6005 C   0  0  0  0  0  0  0  0  0  0  0  0
   -3.0626  -13.2139   -5.1296 C   0  0  0  0  0  0  0  0  0  0  0  0
   -3.9105  -12.3314   -5.7450 C   0  0  0  0  0  0  0  0  0  0  0  0
  1  2  2  3
  2  3  1  0
  2  4  1  0
  7  4  1  6
  4  5  1  0
  4  8  1  1
  5  6  1  1
  6  7  1  1
  8 14  1  0
  8  9  2  0
  9 10  1  0
 10 11  1  0
 10 12  2  0
 12 13  1  0
 13 14  2  0
M  CHG  1   1   1
M  END
$$$$
