
     RDKit          3D

 14 15  0  0  0  0  0  0  0  0999 V2000
   10.4785  -14.8992    7.8092 N   0  0  0  0  0  4  0  0  0  0  0  0
    9.2696  -15.2338    7.6369 C   0  0  0  0  0  0  0  0  0  0  0  0
    8.5760  -14.7338    6.5004 N   0  0  0  0  0  0  0  0  0  0  0  0
    8.6178  -16.1445    8.6123 C   0  0  2  0  0  0  0  0  0  0  0  0
    8.6564  -15.5683   10.0401 C   0  0  0  0  0  0  0  0  0  0  0  0
    9.9897  -16.2521   10.2010 C   0  0  0  0  0  0  0  0  0  0  0  0
    9.5165  -17.2168    9.1016 C   0  0  0  0  0  0  0  0  0  0  0  0
    7.2575  -16.5114    8.2359 C   0  0  0  0  0  0  0  0  0  0  0  0
    6.1182  -15.8833    8.6652 C   0  0  0  0  0  0  0  0  0  0  0  0
    4.8574  -16.3141    8.2397 C   0  0  0  0  0  0  0  0  0  0  0  0
    3.4421  -15.4840    8.8130 Cl  0  0  0  0  0  0  0  0  0  0  0  0
    4.7174  -17.3797    7.3789 C   0  0  0  0  0  0  0  0  0  0  0  0
    5.8550  -18.0169    6.9423 C   0  0  0  0  0  0  0  0  0  0  0  0
    7.0803  -17.5791    7.3708 C   0  0  0  0  0  0  0  0  0  0  0  0
  1  2  2  3
  2  3  1  0
  2  4  1  0
  7  4  1  6
  4  5  1  0
  4  8  1  6
  5  6  1  1
  6  7  1  1
  8 14  1  0
  8  9  2  0
  9 10  1  0
 10 11  1  0
 10 12  2  0
 12 13  1  0
 13 14  2  0
M  CHG  1   1   1
M  END
$$$$
