
     RDKit          3D

 14 15  0  0  0  0  0  0  0  0999 V2000
   12.9275   -5.8682   -1.0417 N   0  0  0  0  0  4  0  0  0  0  0  0
   12.6826   -4.8934   -1.8118 C   0  0  0  0  0  0  0  0  0  0  0  0
   12.1587   -3.6948   -1.2538 N   0  0  0  0  0  0  0  0  0  0  0  0
   12.9606   -5.0231   -3.2649 C   0  0  2  0  0  0  0  0  0  0  0  0
   14.4017   -5.4992   -3.5267 C   0  0  0  0  0  0  0  0  0  0  0  0
   14.8049   -4.0471   -3.5178 C   0  0  0  0  0  0  0  0  0  0  0  0
   13.3479   -3.7424   -3.9025 C   0  0  0  0  0  0  0  0  0  0  0  0
   11.9984   -5.8697   -3.9608 C   0  0  0  0  0  0  0  0  0  0  0  0
   12.0831   -7.2314   -4.0848 C   0  0  0  0  0  0  0  0  0  0  0  0
   11.1011   -7.9519   -4.7726 C   0  0  0  0  0  0  0  0  0  0  0  0
   11.2540   -9.6783   -4.9024 Cl  0  0  0  0  0  0  0  0  0  0  0  0
   10.0201   -7.3210   -5.3467 C   0  0  0  0  0  0  0  0  0  0  0  0
    9.9261   -5.9543   -5.2278 C   0  0  0  0  0  0  0  0  0  0  0  0
   10.8984   -5.2675   -4.5499 C   0  0  0  0  0  0  0  0  0  0  0  0
  1  2  2  3
  2  3  1  0
  2  4  1  0
  7  4  1  6
  4  5  1  0
  4  8  1  6
  5  6  1  1
  6  7  1  1
  8 14  1  0
  8  9  2  0
  9 10  1  0
 10 11  1  0
 10 12  2  0
 12 13  1  0
 13 14  2  0
M  CHG  1   1   1
M  END
$$$$
