
     RDKit          3D

 14 15  0  0  0  0  0  0  0  0999 V2000
    9.6706   -4.2823   -2.4733 N   0  0  0  0  0  4  0  0  0  0  0  0
   10.7745   -4.0975   -3.0653 C   0  0  0  0  0  0  0  0  0  0  0  0
   11.8215   -3.4323   -2.3697 N   0  0  0  0  0  0  0  0  0  0  0  0
   10.9488   -4.5896   -4.4556 C   0  0  2  0  0  0  0  0  0  0  0  0
   12.0888   -3.8502   -5.1806 C   0  0  0  0  0  0  0  0  0  0  0  0
   11.0605   -2.8336   -5.6052 C   0  0  0  0  0  0  0  0  0  0  0  0
   10.0225   -3.9527   -5.4216 C   0  0  0  0  0  0  0  0  0  0  0  0
   11.1323   -6.0342   -4.5352 C   0  0  0  0  0  0  0  0  0  0  0  0
   10.6820   -6.8369   -5.5499 C   0  0  0  0  0  0  0  0  0  0  0  0
   10.9148   -8.2160   -5.5313 C   0  0  0  0  0  0  0  0  0  0  0  0
   10.3230   -9.1914   -6.8424 Cl  0  0  0  0  0  0  0  0  0  0  0  0
   11.6013   -8.8125   -4.4974 C   0  0  0  0  0  0  0  0  0  0  0  0
   12.0573   -8.0153   -3.4739 C   0  0  0  0  0  0  0  0  0  0  0  0
   11.8188   -6.6669   -3.5114 C   0  0  0  0  0  0  0  0  0  0  0  0
  1  2  2  3
  2  3  1  0
  2  4  1  0
  7  4  1  6
  4  5  1  0
  4  8  1  1
  5  6  1  1
  6  7  1  1
  8 14  1  0
  8  9  2  0
  9 10  1  0
 10 11  1  0
 10 12  2  0
 12 13  1  0
 13 14  2  0
M  CHG  1   1   1
M  END
$$$$
