
     RDKit          3D

 14 15  0  0  0  0  0  0  0  0999 V2000
    8.1708  -16.8273    7.8365 N   0  0  0  0  0  4  0  0  0  0  0  0
    8.4175  -15.6156    8.1087 C   0  0  0  0  0  0  0  0  0  0  0  0
    8.6751  -14.7126    7.0407 N   0  0  0  0  0  0  0  0  0  0  0  0
    8.4172  -15.1709    9.5257 C   0  0  2  0  0  0  0  0  0  0  0  0
    9.0305  -13.7665    9.6799 C   0  0  0  0  0  0  0  0  0  0  0  0
   10.3667  -14.4469    9.8307 C   0  0  0  0  0  0  0  0  0  0  0  0
    9.5754  -15.6793   10.2982 C   0  0  0  0  0  0  0  0  0  0  0  0
    7.0997  -15.2344   10.1477 C   0  0  0  0  0  0  0  0  0  0  0  0
    6.1804  -14.2188   10.1656 C   0  0  0  0  0  0  0  0  0  0  0  0
    4.9395  -14.3849   10.7892 C   0  0  0  0  0  0  0  0  0  0  0  0
    3.8075  -13.0660   10.7847 Cl  0  0  0  0  0  0  0  0  0  0  0  0
    4.5998  -15.5690   11.4044 C   0  0  0  0  0  0  0  0  0  0  0  0
    5.5158  -16.5944   11.3921 C   0  0  0  0  0  0  0  0  0  0  0  0
    6.7254  -16.4114   10.7757 C   0  0  0  0  0  0  0  0  0  0  0  0
  1  2  2  3
  2  3  1  0
  2  4  1  0
  7  4  1  6
  4  5  1  0
  4  8  1  1
  5  6  1  1
  6  7  1  1
  8 14  1  0
  8  9  2  0
  9 10  1  0
 10 11  1  0
 10 12  2  0
 12 13  1  0
 13 14  2  0
M  CHG  1   1   1
M  END
$$$$
