
     RDKit          3D

 14 15  0  0  0  0  0  0  0  0999 V2000
    9.2797   -3.7264   -4.9678 N   0  0  0  0  0  4  0  0  0  0  0  0
   10.1879   -4.6011   -5.0826 C   0  0  0  0  0  0  0  0  0  0  0  0
   10.9819   -4.6130   -6.2624 N   0  0  0  0  0  0  0  0  0  0  0  0
   10.4067   -5.5753   -3.9831 C   0  0  2  0  0  0  0  0  0  0  0  0
    9.1572   -5.7178   -3.0941 C   0  0  0  0  0  0  0  0  0  0  0  0
    9.7014   -4.5772   -2.2731 C   0  0  0  0  0  0  0  0  0  0  0  0
   11.0851   -4.9846   -2.8052 C   0  0  0  0  0  0  0  0  0  0  0  0
   10.8628   -6.8786   -4.4523 C   0  0  0  0  0  0  0  0  0  0  0  0
   10.1373   -7.7400   -5.2323 C   0  0  0  0  0  0  0  0  0  0  0  0
   10.6712   -8.9696   -5.6316 C   0  0  0  0  0  0  0  0  0  0  0  0
    9.7106  -10.0274   -6.6210 Cl  0  0  0  0  0  0  0  0  0  0  0  0
   11.9386   -9.3558   -5.2565 C   0  0  0  0  0  0  0  0  0  0  0  0
   12.6748   -8.4982   -4.4735 C   0  0  0  0  0  0  0  0  0  0  0  0
   12.1335   -7.2985   -4.0934 C   0  0  0  0  0  0  0  0  0  0  0  0
  1  2  2  3
  2  3  1  0
  2  4  1  0
  7  4  1  6
  4  5  1  0
  4  8  1  6
  5  6  1  1
  6  7  1  1
  8 14  1  0
  8  9  2  0
  9 10  1  0
 10 11  1  0
 10 12  2  0
 12 13  1  0
 13 14  2  0
M  CHG  1   1   1
M  END
$$$$
