
     RDKit          3D

 14 15  0  0  0  0  0  0  0  0999 V2000
   11.1845  -16.1192    5.5251 N   0  0  0  0  0  4  0  0  0  0  0  0
   10.3917  -15.8805    6.4831 C   0  0  0  0  0  0  0  0  0  0  0  0
   10.3231  -14.5580    7.0018 N   0  0  0  0  0  0  0  0  0  0  0  0
    9.5508  -16.9777    7.0258 C   0  0  2  0  0  0  0  0  0  0  0  0
    9.2433  -16.7709    8.5207 C   0  0  0  0  0  0  0  0  0  0  0  0
   10.5171  -17.5221    8.8112 C   0  0  0  0  0  0  0  0  0  0  0  0
   10.3340  -18.1697    7.4290 C   0  0  0  0  0  0  0  0  0  0  0  0
    8.3238  -17.1906    6.2668 C   0  0  0  0  0  0  0  0  0  0  0  0
    8.1474  -18.1372    5.2923 C   0  0  0  0  0  0  0  0  0  0  0  0
    6.9245  -18.2605    4.6246 C   0  0  0  0  0  0  0  0  0  0  0  0
    6.7509  -19.4773    3.3958 Cl  0  0  0  0  0  0  0  0  0  0  0  0
    5.8602  -17.4389    4.9216 C   0  0  0  0  0  0  0  0  0  0  0  0
    6.0274  -16.4854    5.8982 C   0  0  0  0  0  0  0  0  0  0  0  0
    7.2330  -16.3813    6.5403 C   0  0  0  0  0  0  0  0  0  0  0  0
  1  2  2  3
  2  3  1  0
  2  4  1  0
  7  4  1  6
  4  5  1  0
  4  8  1  6
  5  6  1  1
  6  7  1  1
  8 14  1  0
  8  9  2  0
  9 10  1  0
 10 11  1  0
 10 12  2  0
 12 13  1  0
 13 14  2  0
M  CHG  1   1   1
M  END
$$$$
