
     RDKit          3D

 14 15  0  0  0  0  0  0  0  0999 V2000
   12.6369   -2.7341   -4.4339 N   0  0  0  0  0  4  0  0  0  0  0  0
   12.7228   -3.9534   -4.7640 C   0  0  0  0  0  0  0  0  0  0  0  0
   13.0119   -4.2775   -6.1182 N   0  0  0  0  0  0  0  0  0  0  0  0
   12.5345   -5.0044   -3.7316 C   0  0  2  0  0  0  0  0  0  0  0  0
   12.0210   -4.4121   -2.4059 C   0  0  0  0  0  0  0  0  0  0  0  0
   13.4643   -4.2093   -2.0225 C   0  0  0  0  0  0  0  0  0  0  0  0
   13.7831   -5.3444   -3.0091 C   0  0  0  0  0  0  0  0  0  0  0  0
   11.6820   -6.1008   -4.1765 C   0  0  0  0  0  0  0  0  0  0  0  0
   12.1126   -7.3606   -4.4991 C   0  0  0  0  0  0  0  0  0  0  0  0
   11.2084   -8.3441   -4.9133 C   0  0  0  0  0  0  0  0  0  0  0  0
   11.8045   -9.9273   -5.3117 Cl  0  0  0  0  0  0  0  0  0  0  0  0
    9.8601   -8.0819   -5.0112 C   0  0  0  0  0  0  0  0  0  0  0  0
    9.4179   -6.8202   -4.6897 C   0  0  0  0  0  0  0  0  0  0  0  0
   10.3199   -5.8715   -4.2860 C   0  0  0  0  0  0  0  0  0  0  0  0
  1  2  2  3
  2  3  1  0
  2  4  1  0
  7  4  1  6
  4  5  1  0
  4  8  1  6
  5  6  1  1
  6  7  1  1
  8 14  1  0
  8  9  2  0
  9 10  1  0
 10 11  1  0
 10 12  2  0
 12 13  1  0
 13 14  2  0
M  CHG  1   1   1
M  END
$$$$
