
     RDKit          3D

 14 15  0  0  0  0  0  0  0  0999 V2000
    9.1240  -16.8572    9.0943 N   0  0  0  0  0  4  0  0  0  0  0  0
    8.4843  -15.8506    8.6692 C   0  0  0  0  0  0  0  0  0  0  0  0
    8.1100  -15.8063    7.2979 N   0  0  0  0  0  0  0  0  0  0  0  0
    8.1327  -14.7578    9.6114 C   0  0  2  0  0  0  0  0  0  0  0  0
    8.2336  -13.3753    8.9400 C   0  0  0  0  0  0  0  0  0  0  0  0
    9.6798  -13.3567    9.3634 C   0  0  0  0  0  0  0  0  0  0  0  0
    9.2657  -14.3397   10.4706 C   0  0  0  0  0  0  0  0  0  0  0  0
    6.8287  -14.9375   10.2391 C   0  0  0  0  0  0  0  0  0  0  0  0
    5.6815  -14.2751    9.8898 C   0  0  0  0  0  0  0  0  0  0  0  0
    4.4774  -14.5247   10.5563 C   0  0  0  0  0  0  0  0  0  0  0  0
    3.0494  -13.6584   10.0757 Cl  0  0  0  0  0  0  0  0  0  0  0  0
    4.4030  -15.4402   11.5821 C   0  0  0  0  0  0  0  0  0  0  0  0
    5.5492  -16.1102   11.9403 C   0  0  0  0  0  0  0  0  0  0  0  0
    6.7181  -15.8512   11.2748 C   0  0  0  0  0  0  0  0  0  0  0  0
  1  2  2  3
  2  3  1  0
  2  4  1  0
  7  4  1  6
  4  5  1  0
  4  8  1  1
  5  6  1  1
  6  7  1  1
  8 14  1  0
  8  9  2  0
  9 10  1  0
 10 11  1  0
 10 12  2  0
 12 13  1  0
 13 14  2  0
M  CHG  1   1   1
M  END
$$$$
