
     RDKit          3D

 14 15  0  0  0  0  0  0  0  0999 V2000
    7.2844  -16.1080   10.3244 N   0  0  0  0  0  4  0  0  0  0  0  0
    7.1391  -14.8554   10.4385 C   0  0  0  0  0  0  0  0  0  0  0  0
    8.2853  -14.0205   10.3311 N   0  0  0  0  0  0  0  0  0  0  0  0
    5.7825  -14.2954   10.6659 C   0  0  2  0  0  0  0  0  0  0  0  0
    4.7880  -14.7609    9.5860 C   0  0  0  0  0  0  0  0  0  0  0  0
    5.2142  -13.5606    8.7805 C   0  0  0  0  0  0  0  0  0  0  0  0
    5.6164  -12.9267   10.1221 C   0  0  0  0  0  0  0  0  0  0  0  0
    5.2649  -14.5677   12.0019 C   0  0  0  0  0  0  0  0  0  0  0  0
    5.2988  -13.6970   13.0590 C   0  0  0  0  0  0  0  0  0  0  0  0
    4.7697  -14.0571   14.3027 C   0  0  0  0  0  0  0  0  0  0  0  0
    4.8370  -12.9168   15.6126 Cl  0  0  0  0  0  0  0  0  0  0  0  0
    4.1990  -15.2934   14.5075 C   0  0  0  0  0  0  0  0  0  0  0  0
    4.1603  -16.1746   13.4525 C   0  0  0  0  0  0  0  0  0  0  0  0
    4.6839  -15.8023   12.2427 C   0  0  0  0  0  0  0  0  0  0  0  0
  1  2  2  3
  2  3  1  0
  2  4  1  0
  7  4  1  6
  4  5  1  0
  4  8  1  1
  5  6  1  1
  6  7  1  1
  8 14  1  0
  8  9  2  0
  9 10  1  0
 10 11  1  0
 10 12  2  0
 12 13  1  0
 13 14  2  0
M  CHG  1   1   1
M  END
$$$$
