
     RDKit          3D

 14 15  0  0  0  0  0  0  0  0999 V2000
    4.7662  -17.2492   10.8968 N   0  0  0  0  0  4  0  0  0  0  0  0
    4.2582  -16.5714    9.9557 C   0  0  0  0  0  0  0  0  0  0  0  0
    2.8512  -16.3646    9.9428 N   0  0  0  0  0  0  0  0  0  0  0  0
    5.1416  -16.0028    8.9060 C   0  0  2  0  0  0  0  0  0  0  0  0
    6.5641  -15.7474    9.4384 C   0  0  0  0  0  0  0  0  0  0  0  0
    6.0828  -14.3823    9.8578 C   0  0  0  0  0  0  0  0  0  0  0  0
    5.0115  -14.5331    8.7655 C   0  0  0  0  0  0  0  0  0  0  0  0
    5.1780  -16.8053    7.6888 C   0  0  0  0  0  0  0  0  0  0  0  0
    4.2703  -16.7361    6.6650 C   0  0  0  0  0  0  0  0  0  0  0  0
    4.3989  -17.5512    5.5356 C   0  0  0  0  0  0  0  0  0  0  0  0
    3.2212  -17.4259    4.2637 Cl  0  0  0  0  0  0  0  0  0  0  0  0
    5.4370  -18.4477    5.4137 C   0  0  0  0  0  0  0  0  0  0  0  0
    6.3533  -18.5247    6.4361 C   0  0  0  0  0  0  0  0  0  0  0  0
    6.2094  -17.7174    7.5335 C   0  0  0  0  0  0  0  0  0  0  0  0
  1  2  2  3
  2  3  1  0
  2  4  1  0
  7  4  1  6
  4  5  1  0
  4  8  1  6
  5  6  1  1
  6  7  1  1
  8 14  1  0
  8  9  2  0
  9 10  1  0
 10 11  1  0
 10 12  2  0
 12 13  1  0
 13 14  2  0
M  CHG  1   1   1
M  END
$$$$
