
     RDKit          3D

 14 15  0  0  0  0  0  0  0  0999 V2000
    8.4353  -14.0270    7.2242 N   0  0  0  0  0  4  0  0  0  0  0  0
    8.6665  -14.5351    8.3606 C   0  0  0  0  0  0  0  0  0  0  0  0
    9.4715  -15.7050    8.4367 N   0  0  0  0  0  0  0  0  0  0  0  0
    8.1057  -13.8915    9.5760 C   0  0  2  0  0  0  0  0  0  0  0  0
    8.1165  -12.3557    9.4612 C   0  0  0  0  0  0  0  0  0  0  0  0
    9.5038  -12.3949   10.0486 C   0  0  0  0  0  0  0  0  0  0  0  0
    9.0965  -13.7417   10.6681 C   0  0  0  0  0  0  0  0  0  0  0  0
    6.7752  -14.3781    9.9221 C   0  0  0  0  0  0  0  0  0  0  0  0
    5.6124  -14.0292    9.2872 C   0  0  0  0  0  0  0  0  0  0  0  0
    4.3842  -14.5579    9.6976 C   0  0  0  0  0  0  0  0  0  0  0  0
    2.9371  -14.0839    8.8598 Cl  0  0  0  0  0  0  0  0  0  0  0  0
    4.3008  -15.4430   10.7491 C   0  0  0  0  0  0  0  0  0  0  0  0
    5.4624  -15.7993   11.3930 C   0  0  0  0  0  0  0  0  0  0  0  0
    6.6550  -15.2703   10.9753 C   0  0  0  0  0  0  0  0  0  0  0  0
  1  2  2  3
  2  3  1  0
  2  4  1  0
  7  4  1  6
  4  5  1  0
  4  8  1  1
  5  6  1  1
  6  7  1  1
  8 14  1  0
  8  9  2  0
  9 10  1  0
 10 11  1  0
 10 12  2  0
 12 13  1  0
 13 14  2  0
M  CHG  1   1   1
M  END
$$$$
