
     RDKit          3D

 14 15  0  0  0  0  0  0  0  0999 V2000
   19.6027  -14.2514  -22.8561 N   0  0  0  0  0  4  0  0  0  0  0  0
   19.2758  -13.4869  -21.9012 C   0  0  0  0  0  0  0  0  0  0  0  0
   17.9537  -12.9643  -21.8642 N   0  0  0  0  0  0  0  0  0  0  0  0
   20.2714  -13.1704  -20.8456 C   0  0  2  0  0  0  0  0  0  0  0  0
   20.5356  -11.6561  -20.7503 C   0  0  0  0  0  0  0  0  0  0  0  0
   21.6098  -11.8526  -21.7890 C   0  0  0  0  0  0  0  0  0  0  0  0
   21.6739  -13.3101  -21.3041 C   0  0  0  0  0  0  0  0  0  0  0  0
   19.9206  -13.7204  -19.5413 C   0  0  0  0  0  0  0  0  0  0  0  0
   19.0768  -13.1358  -18.6341 C   0  0  0  0  0  0  0  0  0  0  0  0
   18.8036  -13.7509  -17.4080 C   0  0  0  0  0  0  0  0  0  0  0  0
   17.7261  -12.9687  -16.2909 Cl  0  0  0  0  0  0  0  0  0  0  0  0
   19.3704  -14.9598  -17.0710 C   0  0  0  0  0  0  0  0  0  0  0  0
   20.2190  -15.5546  -17.9749 C   0  0  0  0  0  0  0  0  0  0  0  0
   20.4732  -14.9357  -19.1702 C   0  0  0  0  0  0  0  0  0  0  0  0
  1  2  2  3
  2  3  1  0
  2  4  1  0
  7  4  1  6
  4  5  1  0
  4  8  1  1
  5  6  1  1
  6  7  1  1
  8 14  1  0
  8  9  2  0
  9 10  1  0
 10 11  1  0
 10 12  2  0
 12 13  1  0
 13 14  2  0
M  CHG  1   1   1
M  END
$$$$
