
     RDKit          3D

 14 15  0  0  0  0  0  0  0  0999 V2000
    9.7102   -4.3448   -4.3567 N   0  0  0  0  0  4  0  0  0  0  0  0
   10.7084   -4.5934   -5.0949 C   0  0  0  0  0  0  0  0  0  0  0  0
   10.8302   -3.9085   -6.3353 N   0  0  0  0  0  0  0  0  0  0  0  0
   11.7250   -5.5766   -4.6416 C   0  0  2  0  0  0  0  0  0  0  0  0
   12.1017   -5.3630   -3.1636 C   0  0  0  0  0  0  0  0  0  0  0  0
   13.1580   -4.4033   -3.6478 C   0  0  0  0  0  0  0  0  0  0  0  0
   13.1131   -5.1780   -4.9749 C   0  0  0  0  0  0  0  0  0  0  0  0
   11.3343   -6.9606   -4.8841 C   0  0  0  0  0  0  0  0  0  0  0  0
   11.4758   -7.6289   -6.0717 C   0  0  0  0  0  0  0  0  0  0  0  0
   11.0701   -8.9615   -6.1979 C   0  0  0  0  0  0  0  0  0  0  0  0
   11.2707   -9.7654   -7.7258 Cl  0  0  0  0  0  0  0  0  0  0  0  0
   10.5168   -9.6453   -5.1385 C   0  0  0  0  0  0  0  0  0  0  0  0
   10.3705   -8.9831   -3.9423 C   0  0  0  0  0  0  0  0  0  0  0  0
   10.7744   -7.6782   -3.8395 C   0  0  0  0  0  0  0  0  0  0  0  0
  1  2  2  3
  2  3  1  0
  2  4  1  0
  7  4  1  6
  4  5  1  0
  4  8  1  1
  5  6  1  1
  6  7  1  1
  8 14  1  0
  8  9  2  0
  9 10  1  0
 10 11  1  0
 10 12  2  0
 12 13  1  0
 13 14  2  0
M  CHG  1   1   1
M  END
$$$$
