
     RDKit          3D

 14 15  0  0  0  0  0  0  0  0999 V2000
    4.6368  -14.3027   10.5042 N   0  0  0  0  0  4  0  0  0  0  0  0
    5.4768  -15.2346   10.6751 C   0  0  0  0  0  0  0  0  0  0  0  0
    5.5510  -15.8646   11.9479 N   0  0  0  0  0  0  0  0  0  0  0  0
    6.3458  -15.6507    9.5449 C   0  0  2  0  0  0  0  0  0  0  0  0
    7.6583  -16.2850   10.0419 C   0  0  0  0  0  0  0  0  0  0  0  0
    8.2392  -14.8945   10.0556 C   0  0  0  0  0  0  0  0  0  0  0  0
    7.1724  -14.5450    9.0053 C   0  0  0  0  0  0  0  0  0  0  0  0
    5.6717  -16.5271    8.5940 C   0  0  0  0  0  0  0  0  0  0  0  0
    5.1847  -16.1469    7.3713 C   0  0  0  0  0  0  0  0  0  0  0  0
    4.5551  -17.0707    6.5307 C   0  0  0  0  0  0  0  0  0  0  0  0
    3.9541  -16.5388    4.9891 Cl  0  0  0  0  0  0  0  0  0  0  0  0
    4.4030  -18.3883    6.9007 C   0  0  0  0  0  0  0  0  0  0  0  0
    4.8884  -18.7798    8.1263 C   0  0  0  0  0  0  0  0  0  0  0  0
    5.5020  -17.8595    8.9344 C   0  0  0  0  0  0  0  0  0  0  0  0
  1  2  2  3
  2  3  1  0
  2  4  1  0
  7  4  1  6
  4  5  1  0
  4  8  1  6
  5  6  1  1
  6  7  1  1
  8 14  1  0
  8  9  2  0
  9 10  1  0
 10 11  1  0
 10 12  2  0
 12 13  1  0
 13 14  2  0
M  CHG  1   1   1
M  END
$$$$
