
     RDKit          3D

 14 15  0  0  0  0  0  0  0  0999 V2000
   12.8312   -3.8672   -2.9330 N   0  0  0  0  0  4  0  0  0  0  0  0
   12.2804   -4.8937   -2.4370 C   0  0  0  0  0  0  0  0  0  0  0  0
   12.9097   -5.5465   -1.3413 N   0  0  0  0  0  0  0  0  0  0  0  0
   10.9937   -5.3762   -3.0002 C   0  0  2  0  0  0  0  0  0  0  0  0
   10.2078   -4.2374   -3.6767 C   0  0  0  0  0  0  0  0  0  0  0  0
    9.5862   -3.9660   -2.3309 C   0  0  0  0  0  0  0  0  0  0  0  0
    9.9023   -5.4335   -1.9992 C   0  0  0  0  0  0  0  0  0  0  0  0
   11.1513   -6.5087   -3.9053 C   0  0  0  0  0  0  0  0  0  0  0  0
   10.8637   -7.8134   -3.6020 C   0  0  0  0  0  0  0  0  0  0  0  0
   11.0483   -8.8275   -4.5474 C   0  0  0  0  0  0  0  0  0  0  0  0
   10.6688  -10.4672   -4.1137 Cl  0  0  0  0  0  0  0  0  0  0  0  0
   11.5234   -8.5519   -5.8100 C   0  0  0  0  0  0  0  0  0  0  0  0
   11.8152   -7.2454   -6.1242 C   0  0  0  0  0  0  0  0  0  0  0  0
   11.6271   -6.2670   -5.1840 C   0  0  0  0  0  0  0  0  0  0  0  0
  1  2  2  3
  2  3  1  0
  2  4  1  0
  7  4  1  6
  4  5  1  0
  4  8  1  6
  5  6  1  1
  6  7  1  1
  8 14  1  0
  8  9  2  0
  9 10  1  0
 10 11  1  0
 10 12  2  0
 12 13  1  0
 13 14  2  0
M  CHG  1   1   1
M  END
$$$$
