
     RDKit          3D

 14 15  0  0  0  0  0  0  0  0999 V2000
    4.2993  -13.0443   10.7923 N   0  0  0  0  0  4  0  0  0  0  0  0
    5.1693  -13.3648    9.9300 C   0  0  0  0  0  0  0  0  0  0  0  0
    5.5681  -12.3970    8.9672 N   0  0  0  0  0  0  0  0  0  0  0  0
    5.7556  -14.7291    9.9563 C   0  0  2  0  0  0  0  0  0  0  0  0
    5.8340  -15.2855   11.3903 C   0  0  0  0  0  0  0  0  0  0  0  0
    7.1899  -14.6355   11.4898 C   0  0  0  0  0  0  0  0  0  0  0  0
    7.2377  -14.7284    9.9560 C   0  0  0  0  0  0  0  0  0  0  0  0
    5.0722  -15.6655    9.0715 C   0  0  0  0  0  0  0  0  0  0  0  0
    5.4813  -16.0080    7.8096 C   0  0  0  0  0  0  0  0  0  0  0  0
    4.7523  -16.9223    7.0423 C   0  0  0  0  0  0  0  0  0  0  0  0
    5.3128  -17.3240    5.4469 Cl  0  0  0  0  0  0  0  0  0  0  0  0
    3.6033  -17.5074    7.5255 C   0  0  0  0  0  0  0  0  0  0  0  0
    3.1843  -17.1701    8.7910 C   0  0  0  0  0  0  0  0  0  0  0  0
    3.9128  -16.2726    9.5262 C   0  0  0  0  0  0  0  0  0  0  0  0
  1  2  2  3
  2  3  1  0
  2  4  1  0
  7  4  1  6
  4  5  1  0
  4  8  1  6
  5  6  1  1
  6  7  1  1
  8 14  1  0
  8  9  2  0
  9 10  1  0
 10 11  1  0
 10 12  2  0
 12 13  1  0
 13 14  2  0
M  CHG  1   1   1
M  END
$$$$
