
     RDKit          3D

 14 15  0  0  0  0  0  0  0  0999 V2000
    4.4363  -18.7159    7.9364 N   0  0  0  0  0  4  0  0  0  0  0  0
    4.8708  -17.6614    7.3865 C   0  0  0  0  0  0  0  0  0  0  0  0
    4.7057  -17.5032    5.9829 N   0  0  0  0  0  0  0  0  0  0  0  0
    5.5240  -16.6195    8.2192 C   0  0  2  0  0  0  0  0  0  0  0  0
    6.5075  -15.7682    7.3947 C   0  0  0  0  0  0  0  0  0  0  0  0
    7.5626  -16.7885    7.7364 C   0  0  0  0  0  0  0  0  0  0  0  0
    6.7018  -17.1215    8.9659 C   0  0  0  0  0  0  0  0  0  0  0  0
    4.5733  -15.7731    8.9310 C   0  0  0  0  0  0  0  0  0  0  0  0
    3.6315  -14.9698    8.3442 C   0  0  0  0  0  0  0  0  0  0  0  0
    2.7624  -14.1971    9.1214 C   0  0  0  0  0  0  0  0  0  0  0  0
    1.5848  -13.1939    8.3292 Cl  0  0  0  0  0  0  0  0  0  0  0  0
    2.8227  -14.2163   10.4969 C   0  0  0  0  0  0  0  0  0  0  0  0
    3.7648  -15.0194   11.0955 C   0  0  0  0  0  0  0  0  0  0  0  0
    4.6063  -15.7685   10.3162 C   0  0  0  0  0  0  0  0  0  0  0  0
  1  2  2  3
  2  3  1  0
  2  4  1  0
  7  4  1  6
  4  5  1  0
  4  8  1  1
  5  6  1  1
  6  7  1  1
  8 14  1  0
  8  9  2  0
  9 10  1  0
 10 11  1  0
 10 12  2  0
 12 13  1  0
 13 14  2  0
M  CHG  1   1   1
M  END
$$$$
