
     RDKit          3D

 14 15  0  0  0  0  0  0  0  0999 V2000
   14.6513   -4.7342   -3.2427 N   0  0  0  0  0  4  0  0  0  0  0  0
   13.5423   -4.4033   -3.7561 C   0  0  0  0  0  0  0  0  0  0  0  0
   13.5318   -3.4364   -4.7989 N   0  0  0  0  0  0  0  0  0  0  0  0
   12.2926   -5.0400   -3.2678 C   0  0  2  0  0  0  0  0  0  0  0  0
   11.1921   -3.9969   -2.9977 C   0  0  0  0  0  0  0  0  0  0  0  0
   11.7487   -3.8791   -1.6022 C   0  0  0  0  0  0  0  0  0  0  0  0
   12.3002   -5.2992   -1.8085 C   0  0  0  0  0  0  0  0  0  0  0  0
   11.8041   -6.0960   -4.1471 C   0  0  0  0  0  0  0  0  0  0  0  0
   12.1525   -7.4186   -4.0690 C   0  0  0  0  0  0  0  0  0  0  0  0
   11.6220   -8.3545   -4.9628 C   0  0  0  0  0  0  0  0  0  0  0  0
   12.0955  -10.0209   -4.8224 Cl  0  0  0  0  0  0  0  0  0  0  0  0
   10.7354   -7.9814   -5.9481 C   0  0  0  0  0  0  0  0  0  0  0  0
   10.3794   -6.6561   -6.0348 C   0  0  0  0  0  0  0  0  0  0  0  0
   10.9103   -5.7554   -5.1495 C   0  0  0  0  0  0  0  0  0  0  0  0
  1  2  2  3
  2  3  1  0
  2  4  1  0
  7  4  1  6
  4  5  1  0
  4  8  1  6
  5  6  1  1
  6  7  1  1
  8 14  1  0
  8  9  2  0
  9 10  1  0
 10 11  1  0
 10 12  2  0
 12 13  1  0
 13 14  2  0
M  CHG  1   1   1
M  END
$$$$
