
     RDKit          3D

 14 15  0  0  0  0  0  0  0  0999 V2000
    6.7503  -16.0731   13.4913 N   0  0  0  0  0  4  0  0  0  0  0  0
    5.7817  -15.2788   13.3068 C   0  0  0  0  0  0  0  0  0  0  0  0
    4.7614  -15.2021   14.2946 N   0  0  0  0  0  0  0  0  0  0  0  0
    5.7453  -14.4444   12.0788 C   0  0  2  0  0  0  0  0  0  0  0  0
    7.1568  -14.2134   11.5076 C   0  0  0  0  0  0  0  0  0  0  0  0
    7.2402  -13.0023   12.4007 C   0  0  0  0  0  0  0  0  0  0  0  0
    5.7034  -12.9900   12.3613 C   0  0  0  0  0  0  0  0  0  0  0  0
    4.8488  -14.9679   11.0546 C   0  0  0  0  0  0  0  0  0  0  0  0
    3.7508  -14.3194   10.5539 C   0  0  0  0  0  0  0  0  0  0  0  0
    2.9561  -14.9112    9.5666 C   0  0  0  0  0  0  0  0  0  0  0  0
    1.5735  -14.0476    8.9639 Cl  0  0  0  0  0  0  0  0  0  0  0  0
    3.2476  -16.1603    9.0658 C   0  0  0  0  0  0  0  0  0  0  0  0
    4.3477  -16.8194    9.5621 C   0  0  0  0  0  0  0  0  0  0  0  0
    5.1130  -16.2222   10.5286 C   0  0  0  0  0  0  0  0  0  0  0  0
  1  2  2  3
  2  3  1  0
  2  4  1  0
  7  4  1  6
  4  5  1  0
  4  8  1  6
  5  6  1  1
  6  7  1  1
  8 14  1  0
  8  9  2  0
  9 10  1  0
 10 11  1  0
 10 12  2  0
 12 13  1  0
 13 14  2  0
M  CHG  1   1   1
M  END
$$$$
