
     RDKit          3D

 14 15  0  0  0  0  0  0  0  0999 V2000
    9.8394   -7.6410   -7.1723 N   0  0  0  0  0  4  0  0  0  0  0  0
   10.3967   -8.7315   -7.4940 C   0  0  0  0  0  0  0  0  0  0  0  0
   10.7041   -8.9656   -8.8627 N   0  0  0  0  0  0  0  0  0  0  0  0
   10.7244   -9.7234   -6.4384 C   0  0  2  0  0  0  0  0  0  0  0  0
   10.5275   -9.1370   -5.0279 C   0  0  0  0  0  0  0  0  0  0  0  0
   11.9548   -8.6598   -5.1070 C   0  0  0  0  0  0  0  0  0  0  0  0
   12.1720   -9.7892   -6.1272 C   0  0  0  0  0  0  0  0  0  0  0  0
    9.9990  -10.9800   -6.5854 C   0  0  0  0  0  0  0  0  0  0  0  0
   10.5207  -12.1440   -7.0851 C   0  0  0  0  0  0  0  0  0  0  0  0
    9.7372  -13.2987   -7.1809 C   0  0  0  0  0  0  0  0  0  0  0  0
   10.4457  -14.7506   -7.8219 Cl  0  0  0  0  0  0  0  0  0  0  0  0
    8.4203  -13.3062   -6.7787 C   0  0  0  0  0  0  0  0  0  0  0  0
    7.8873  -12.1426   -6.2758 C   0  0  0  0  0  0  0  0  0  0  0  0
    8.6717  -11.0228   -6.1902 C   0  0  0  0  0  0  0  0  0  0  0  0
  1  2  2  3
  2  3  1  0
  2  4  1  0
  7  4  1  6
  4  5  1  0
  4  8  1  6
  5  6  1  1
  6  7  1  1
  8 14  1  0
  8  9  2  0
  9 10  1  0
 10 11  1  0
 10 12  2  0
 12 13  1  0
 13 14  2  0
M  CHG  1   1   1
M  END
$$$$
