
     RDKit          3D

 14 15  0  0  0  0  0  0  0  0999 V2000
   24.9912   -7.1757  -23.7358 N   0  0  0  0  0  4  0  0  0  0  0  0
   26.1073   -7.4478  -23.2033 C   0  0  0  0  0  0  0  0  0  0  0  0
   26.7060   -6.4891  -22.3402 N   0  0  0  0  0  0  0  0  0  0  0  0
   26.7492   -8.7577  -23.4818 C   0  0  2  0  0  0  0  0  0  0  0  0
   28.2503   -8.6003  -23.7883 C   0  0  0  0  0  0  0  0  0  0  0  0
   27.8610   -8.4158  -25.2325 C   0  0  0  0  0  0  0  0  0  0  0  0
   26.5859   -9.2018  -24.8864 C   0  0  0  0  0  0  0  0  0  0  0  0
   26.5341   -9.7395  -22.4251 C   0  0  0  0  0  0  0  0  0  0  0  0
   25.5655  -10.7082  -22.4268 C   0  0  0  0  0  0  0  0  0  0  0  0
   25.4464  -11.6059  -21.3608 C   0  0  0  0  0  0  0  0  0  0  0  0
   24.2008  -12.8170  -21.4102 Cl  0  0  0  0  0  0  0  0  0  0  0  0
   26.2941  -11.5478  -20.2773 C   0  0  0  0  0  0  0  0  0  0  0  0
   27.2697  -10.5788  -20.2661 C   0  0  0  0  0  0  0  0  0  0  0  0
   27.3695   -9.7095  -21.3202 C   0  0  0  0  0  0  0  0  0  0  0  0
  1  2  2  3
  2  3  1  0
  2  4  1  0
  7  4  1  6
  4  5  1  0
  4  8  1  1
  5  6  1  1
  6  7  1  1
  8 14  1  0
  8  9  2  0
  9 10  1  0
 10 11  1  0
 10 12  2  0
 12 13  1  0
 13 14  2  0
M  CHG  1   1   1
M  END
$$$$
