
     RDKit          3D

 14 15  0  0  0  0  0  0  0  0999 V2000
    9.7162   -2.7359   -4.8751 N   0  0  0  0  0  4  0  0  0  0  0  0
    9.7954   -3.9941   -4.9930 C   0  0  0  0  0  0  0  0  0  0  0  0
    8.5942   -4.7526   -5.0585 N   0  0  0  0  0  0  0  0  0  0  0  0
   11.1316   -4.6373   -5.0730 C   0  0  2  0  0  0  0  0  0  0  0  0
   12.1526   -3.9410   -4.1538 C   0  0  0  0  0  0  0  0  0  0  0  0
   12.4579   -3.0241   -5.3102 C   0  0  0  0  0  0  0  0  0  0  0  0
   11.9446   -4.1561   -6.2150 C   0  0  0  0  0  0  0  0  0  0  0  0
   11.0948   -6.0725   -4.8168 C   0  0  0  0  0  0  0  0  0  0  0  0
   11.1766   -7.0516   -5.7714 C   0  0  0  0  0  0  0  0  0  0  0  0
   11.1347   -8.4042   -5.4176 C   0  0  0  0  0  0  0  0  0  0  0  0
   11.2420   -9.6086   -6.6661 Cl  0  0  0  0  0  0  0  0  0  0  0  0
   11.0102   -8.7974   -4.1039 C   0  0  0  0  0  0  0  0  0  0  0  0
   10.9272   -7.8221   -3.1382 C   0  0  0  0  0  0  0  0  0  0  0  0
   10.9704   -6.5031   -3.5057 C   0  0  0  0  0  0  0  0  0  0  0  0
  1  2  2  3
  2  3  1  0
  2  4  1  0
  7  4  1  6
  4  5  1  0
  4  8  1  1
  5  6  1  1
  6  7  1  1
  8 14  1  0
  8  9  2  0
  9 10  1  0
 10 11  1  0
 10 12  2  0
 12 13  1  0
 13 14  2  0
M  CHG  1   1   1
M  END
$$$$
