
     RDKit          3D

 14 15  0  0  0  0  0  0  0  0999 V2000
   10.5770   -3.3684   -5.1199 N   0  0  0  0  0  4  0  0  0  0  0  0
    9.9702   -4.4031   -4.7146 C   0  0  0  0  0  0  0  0  0  0  0  0
    8.6630   -4.6679   -5.2082 N   0  0  0  0  0  0  0  0  0  0  0  0
   10.6416   -5.3132   -3.7519 C   0  0  2  0  0  0  0  0  0  0  0  0
    9.8990   -5.3608   -2.4035 C   0  0  0  0  0  0  0  0  0  0  0  0
   10.7462   -4.1889   -1.9792 C   0  0  0  0  0  0  0  0  0  0  0  0
   11.7633   -4.6717   -3.0260 C   0  0  0  0  0  0  0  0  0  0  0  0
   10.8484   -6.6568   -4.2797 C   0  0  0  0  0  0  0  0  0  0  0  0
   10.0253   -7.7303   -4.0628 C   0  0  0  0  0  0  0  0  0  0  0  0
   10.3140   -8.9803   -4.6202 C   0  0  0  0  0  0  0  0  0  0  0  0
    9.2385  -10.3110   -4.3153 Cl  0  0  0  0  0  0  0  0  0  0  0  0
   11.4303   -9.1751   -5.4025 C   0  0  0  0  0  0  0  0  0  0  0  0
   12.2629   -8.1038   -5.6260 C   0  0  0  0  0  0  0  0  0  0  0  0
   11.9620   -6.8880   -5.0711 C   0  0  0  0  0  0  0  0  0  0  0  0
  1  2  2  3
  2  3  1  0
  2  4  1  0
  7  4  1  6
  4  5  1  0
  4  8  1  6
  5  6  1  1
  6  7  1  1
  8 14  1  0
  8  9  2  0
  9 10  1  0
 10 11  1  0
 10 12  2  0
 12 13  1  0
 13 14  2  0
M  CHG  1   1   1
M  END
$$$$
