
     RDKit          3D

 14 15  0  0  0  0  0  0  0  0999 V2000
    7.3517  -11.7910   11.7610 N   0  0  0  0  0  4  0  0  0  0  0  0
    7.1795  -12.9923   12.1221 C   0  0  0  0  0  0  0  0  0  0  0  0
    6.9802  -13.2705   13.5025 N   0  0  0  0  0  0  0  0  0  0  0  0
    7.1764  -14.0689   11.0991 C   0  0  2  0  0  0  0  0  0  0  0  0
    8.1640  -15.1951   11.4575 C   0  0  0  0  0  0  0  0  0  0  0  0
    9.2146  -14.4099   10.7152 C   0  0  0  0  0  0  0  0  0  0  0  0
    8.0498  -13.7748    9.9383 C   0  0  0  0  0  0  0  0  0  0  0  0
    5.8470  -14.6072   10.8353 C   0  0  0  0  0  0  0  0  0  0  0  0
    5.3924  -15.8342   11.2412 C   0  0  0  0  0  0  0  0  0  0  0  0
    4.0935  -16.2549   10.9373 C   0  0  0  0  0  0  0  0  0  0  0  0
    3.5642  -17.8206   11.4749 Cl  0  0  0  0  0  0  0  0  0  0  0  0
    3.2303  -15.4547   10.2228 C   0  0  0  0  0  0  0  0  0  0  0  0
    3.6772  -14.2213    9.8107 C   0  0  0  0  0  0  0  0  0  0  0  0
    4.9528  -13.8282   10.1189 C   0  0  0  0  0  0  0  0  0  0  0  0
  1  2  2  3
  2  3  1  0
  2  4  1  0
  7  4  1  6
  4  5  1  0
  4  8  1  6
  5  6  1  1
  6  7  1  1
  8 14  1  0
  8  9  2  0
  9 10  1  0
 10 11  1  0
 10 12  2  0
 12 13  1  0
 13 14  2  0
M  CHG  1   1   1
M  END
$$$$
